geometry optimzed in LAMMPS
_audit_creation_date              2020-12-01 
_audit_creation_method            'lammps2cif' 
_symmetry_space_group_name_H-M    'P1' 
_symmetry_Int_Tables_number       1 
_symmetry_cell_setting            triclinic 
loop_ 
_symmetry_equiv_pos_as_xyz 
  x,y,z 
_cell_length_a                    38.16425558 
_cell_length_b                    42.7959939077931 
_cell_length_c                    35.48811902388622 
_cell_angle_alpha                 90.45702155577082 
_cell_angle_beta                  89.72127682452263 
_cell_angle_gamma                 89.81622204017256 
loop_ 
_atom_site_label 
_atom_site_type_symbol 
_atom_site_fract_x 
_atom_site_fract_y 
_atom_site_fract_z 
_atom_site_charge 
O1          O  0.07202550  0.04825056  0.85912554    -0.84800
O2          O  0.05870636  0.04670761  0.93269163    -0.81800
C3          C  0.05103862  0.05324255  0.96602388     0.98700
O4          O  0.05091691  0.08183605  0.97643297    -0.81900
O5          O  0.11784025  0.10086828  0.95893690    -0.84500
C6          C  0.14430328  0.11181764  0.94279552     1.03200
O7          O  0.14186635  0.12164892  0.90892071    -0.77300
O8          O  0.12256580  0.06916704  0.87033010    -0.77500
C9          C  0.10478772  0.04509910  0.86434405     1.03200
O10         O  0.02045568  0.09843016  0.85279168    -0.84800
O11         O  0.50314073  0.09176022  0.92668984    -0.81800
C12         C  0.50013428  0.11934029  0.94018983     0.98700
O13         O  0.02640972  0.13833762  0.93978010    -0.81900
O14         O  0.09357606  0.16019253  0.92932447    -0.84500
C15         C  0.09399392  0.17164023  0.89619049     1.03200
O16         O  0.08625325  0.15453808  0.86861568    -0.77300
O17         O  0.07112294  0.10308717  0.82416700    -0.77400
C18         C  0.03758748  0.10230563  0.82289970     1.03100
Cr19       Cr  0.04021359  0.07346907  0.89350697     1.93700
Cr20       Cr  0.07223891  0.11934632  0.94832981     1.93200
Cr21       Cr  0.10343700  0.11149761  0.86968697     1.39100
O22         O  0.07171153  0.10175347  0.90359359    -1.22500
O23         O  0.38891103  0.44354049  0.11280440    -0.84800
O24         O  0.37104691  0.38957194  0.07501821    -0.81800
C25         C  0.37374765  0.39629903  0.04012642     0.98700
O26         O  0.40208117  0.40648994  0.02761042    -0.81900
O27         O  0.47007371  0.42341670  0.01855645    -0.84500
C28         C  0.46969789  0.45238883  0.02739927     1.03200
O29         O  0.46006504  0.46045416  0.05979292    -0.77300
O30         O  0.43897355  0.46175639  0.13199488    -0.77500
C31         C  0.40704930  0.46632800  0.12347500     1.03200
O32         O  0.43208860  0.40888886  0.16709690    -0.84800
O33         O  0.41812751  0.35669624  0.12466823    -0.81800
C34         C  0.41433463  0.33809282  0.09756660     0.98700
O35         O  0.41993655  0.34801229  0.06422247    -0.81900
O36         O  0.48840981  0.36775113  0.06203860    -0.84500
C37         C  0.01714880  0.38641961  0.06517519     1.03200
O38         O  0.01351189  0.41415012  0.07759785    -0.77300
O39         O  0.48604360  0.40907149  0.14520458    -0.77400
C40         C  0.46513930  0.40649248  0.17234462     1.03100
Cr41       Cr  0.40465720  0.40029140  0.11836191     1.93700
Cr42       Cr  0.44487047  0.38742296  0.04574603     1.93200
Cr43       Cr  0.47249398  0.43422994  0.10204207     1.39100
O44         O  0.44074312  0.40706084  0.08887541    -1.22500
O45         O  0.13778418  0.31748835  0.87986905    -0.84800
O46         O  0.12172355  0.37168754  0.91701147    -0.81800
C47         C  0.12492258  0.36618364  0.95207589     0.98700
O48         O  0.15372348  0.35777539  0.96546904    -0.81900
O49         O  0.22125820  0.33526825  0.97017331    -0.84500
C50         C  0.22030034  0.30646141  0.96025605     1.03200
O51         O  0.20637312  0.29938445  0.92989423    -0.77300
O52         O  0.18671806  0.29811354  0.85852673    -0.77500
C53         C  0.15571763  0.29408697  0.87047932     1.03200
O54         O  0.18161898  0.35175996  0.82410475    -0.84800
O55         O  0.16785828  0.40378881  0.86573494    -0.81800
C56         C  0.16615690  0.42244296  0.89308534     0.98700
O57         O  0.17379827  0.41338274  0.92623219    -0.81900
O58         O  0.24128336  0.38981333  0.92514508    -0.84500
C59         C  0.26614525  0.37101777  0.92869489     1.03200
O60         O  0.26263447  0.34331578  0.91614108    -0.77300
O61         O  0.23574618  0.34858708  0.84469383    -0.77400
C62         C  0.21475067  0.35345329  0.81830466     1.03100
Cr63       Cr  0.15439566  0.36044372  0.87305510     1.93700
Cr64       Cr  0.19719601  0.37301605  0.94416871     1.93200
Cr65       Cr  0.22122730  0.32427106  0.88774098     1.39100
O66         O  0.19086514  0.35305711  0.90148828    -1.22500
O67         O  0.32095602  0.21117249  0.13634683    -0.84800
O68         O  0.30408290  0.20940948  0.06499604    -0.81800
C69         C  0.29149068  0.20330384  0.03382252     0.98700
O70         O  0.29034824  0.17464536  0.02313795    -0.81900
O71         O  0.35775067  0.15346468  0.03127178    -0.84500
C72         C  0.38594753  0.14448315  0.04528595     1.03200
O73         O  0.38777068  0.13857308  0.08037212    -0.77300
O74         O  0.37057723  0.19189811  0.11701916    -0.77500
C75         C  0.35233606  0.21523973  0.12544192     1.03200
O76         O  0.27187363  0.15964956  0.14803297    -0.84800
O77         O  0.24728130  0.16500490  0.07564978    -0.81800
C78         C  0.24377137  0.13762870  0.06181021     0.98700
O79         O  0.26894292  0.11890953  0.06483959    -0.81900
O80         O  0.33800498  0.09644434  0.06874435    -0.84500
C81         C  0.34478095  0.08711581  0.10219444     1.03200
O82         O  0.34100656  0.10528634  0.12988350    -0.77300
O83         O  0.32475465  0.15808942  0.17191407    -0.77400
C84         C  0.29130075  0.15730571  0.17621686     1.03100
Cr85       Cr  0.28750856  0.18439867  0.10592850     1.93700
Cr86       Cr  0.31401143  0.13674646  0.04977251     1.93200
Cr87       Cr  0.35381332  0.14905277  0.12343456     1.39100
O88         O  0.31824311  0.15595495  0.09340063    -1.22500
O89         O  0.43347046  0.04744740  0.63895984    -0.84800
O90         O  0.45717241  0.04634062  0.56901731    -0.81800
C91         C  0.47017947  0.05322715  0.53801806     0.98700
O92         O  0.47160629  0.08180195  0.52793685    -0.81900
O93         O  0.40486581  0.10562406  0.53222821    -0.84500
C94         C  0.37652251  0.11653536  0.54457989     1.03200
O95         O  0.37336347  0.12323063  0.57956478    -0.77300
O96         O  0.38561893  0.06870511  0.61793626    -0.77500
C97         C  0.40218815  0.04453246  0.62708651     1.03200
O98         O  0.48393003  0.09754921  0.65452745    -0.84800
O99         O  0.01178903  0.08936927  0.58126749    -0.81800
C100        C  0.01617673  0.11630250  0.56698236     0.98700
O101        O  0.99184902  0.13575724  0.57074100    -0.81900
O102        O  0.42669036  0.16190024  0.57068779    -0.84500
C103        C  0.41969654  0.17263883  0.60356371     1.03200
O104        O  0.42040764  0.15421642  0.63091149    -0.77300
O105        O  0.42941899  0.10195695  0.67409275    -0.77400
C106        C  0.46236329  0.10285473  0.68065494     1.03100
Cr107      Cr  0.47032768  0.07245215  0.61102483     1.93700
Cr108      Cr  0.44869798  0.12042089  0.55344832     1.93200
Cr109      Cr  0.40441789  0.11116752  0.62419685     1.39100
O110        O  0.44101959  0.10152162  0.59623512    -1.22500
O111        O  0.12241000  0.43434459  0.37641565    -0.84800
O112        O  0.13606500  0.37914663  0.41216091    -0.81800
C113        C  0.13527854  0.38525011  0.44746290     0.98700
O114        O  0.10806507  0.39617755  0.46257767    -0.81900
O115        O  0.04181525  0.42157186  0.47280775    -0.84500
C116        C  0.04356496  0.45021406  0.46298258     1.03200
O117        O  0.05640803  0.45674872  0.43181838    -0.77300
O118        O  0.07377336  0.45664167  0.35947517    -0.77500
C119        C  0.10559027  0.45884511  0.36928003     1.03200
O120        O  0.07352935  0.40295418  0.32272445    -0.84800
O121        O  0.08398118  0.34978563  0.36430852    -0.81800
C122        C  0.08750243  0.33134250  0.39138020     0.98700
O123        O  0.08272732  0.34144597  0.42497837    -0.81900
O124        O  0.01636043  0.36792763  0.42939555    -0.84500
C125        C  0.48794794  0.38800536  0.42777374     1.03200
O126        O  0.49267792  0.41537463  0.41493901    -0.77300
O127        O  0.02070375  0.40930450  0.34673129    -0.77400
C128        C  0.04020463  0.40465233  0.31863640     1.03100
Cr129      Cr  0.10193710  0.39233574  0.37041147     1.93700
Cr130      Cr  0.06250843  0.38285429  0.44471104     1.93200
Cr131      Cr  0.03866433  0.43238825  0.38999266     1.39100
O132        O  0.06766499  0.40213282  0.40151498    -1.22500
O133        O  0.37209124  0.32024674  0.61723124    -0.84800
O134        O  0.38563892  0.37527463  0.58094166    -0.81800
C135        C  0.38451349  0.36906452  0.54565041     0.98700
O136        O  0.35723766  0.35832560  0.53103113    -0.81900
O137        O  0.29124581  0.33286000  0.52203354    -0.84500
C138        C  0.29289325  0.30423321  0.53228376     1.03200
O139        O  0.30623111  0.29800383  0.56316753    -0.77300
O140        O  0.32347702  0.29852466  0.63547983    -0.77500
C141        C  0.35540650  0.29607209  0.62568798     1.03200
O142        O  0.32277768  0.35181203  0.67130850    -0.84800
O143        O  0.33388150  0.40488164  0.62990858    -0.81800
C144        C  0.33747261  0.42326031  0.60281956     0.98700
O145        O  0.33210352  0.41336781  0.56924770    -0.81900
O146        O  0.26568580  0.38696646  0.56569783    -0.84500
C147        C  0.24237019  0.36687179  0.56091120     1.08000
O148        O  0.24734393  0.33970057  0.57408748    -0.77300
O149        O  0.27079345  0.34771381  0.64615713    -0.77400
C150        C  0.28925951  0.35135262  0.67483092     1.03100
Cr151      Cr  0.35164348  0.36228991  0.62335035     1.93700
Cr152      Cr  0.31186289  0.37191690  0.54956669     1.93200
Cr153      Cr  0.28848752  0.32289899  0.60454194     1.39100
O154        O  0.31750253  0.35265633  0.59247239    -1.22500
O155        O  0.18508805  0.20589879  0.35964625    -0.84800
O156        O  0.20405931  0.20766838  0.43114046    -0.81800
C157        C  0.21725272  0.20153248  0.46211147     0.98700
O158        O  0.21799377  0.17311490  0.47307932    -0.81900
O159        O  0.15098358  0.14794796  0.46606223    -0.84500
C160        C  0.12371735  0.13656660  0.45192825     1.03200
O161        O  0.12257639  0.13015022  0.41672887    -0.77300
O162        O  0.13643217  0.18462750  0.37867385    -0.77500
C163        C  0.15324587  0.20870330  0.36978511     1.03200
O164        O  0.23726189  0.15662936  0.34751435    -0.84800
O165        O  0.26199414  0.16451399  0.42008147    -0.81800
C166        C  0.26636984  0.13759967  0.43429964     0.98700
O167        O  0.24229944  0.11791299  0.43160500    -0.81900
O168        O  0.17551568  0.09205025  0.42929233    -0.84500
C169        C  0.17006065  0.08162265  0.39596842     1.03200
O170        O  0.17402617  0.09955510  0.36849667    -0.77300
O171        O  0.18400657  0.15155247  0.32538503    -0.77400
C172        C  0.21725530  0.15156824  0.32021780     1.03100
Cr173      Cr  0.22047185  0.18159927  0.39003365     1.93700
Cr174      Cr  0.19642564  0.13384280  0.44731637     1.93200
Cr175      Cr  0.15630670  0.14227506  0.37382363     1.39100
O176        O  0.19100924  0.15231023  0.40370290    -1.22500
C177        C  0.27339423  0.27833774  0.51363252    -0.04800
C178        C  0.27596885  0.27305806  0.47470273    -0.01900
C179        C  0.25857299  0.24732740  0.45821811     0.03100
C180        C  0.23728253  0.22713383  0.48056420    -0.04800
C181        C  0.23470380  0.23242333  0.51942911    -0.01900
C182        C  0.25309818  0.25740777  0.53608792     0.03100
C183        C  0.29806102  0.29312208  0.45197835     0.37800
C184        C  0.21200939  0.21284305  0.54211858     0.37700
C185        C  0.25108113  0.26094846  0.57671640     0.36200
C186        C  0.26381175  0.24127044  0.41825671     0.36200
N187        N  0.25002172  0.26293971  0.60922053    -0.38700
N188        N  0.26816290  0.23664882  0.38638671    -0.38700
N189        N  0.19369263  0.19735794  0.56006781    -0.38100
N190        N  0.31584542  0.30912943  0.43407875    -0.38100
C191        C  0.41342144  0.37636378  0.51916620    -0.04800
C192        C  0.40857162  0.40036560  0.49242305    -0.01900
C193        C  0.43098892  0.40287045  0.46078643     0.03100
C194        C  0.45873797  0.38127145  0.45523953    -0.04800
C195        C  0.46173586  0.35592917  0.48096252    -0.01900
C196        C  0.44051306  0.35459733  0.51358996     0.03100
C197        C  0.38029928  0.42278303  0.49713933     0.37800
C198        C  0.00598794  0.35219449  0.50236529     0.37700
C199        C  0.44641301  0.33049176  0.54140422     0.36200
C200        C  0.42374552  0.42661994  0.43288133     0.36200
N201        N  0.45165191  0.31146823  0.56369374    -0.38700
N202        N  0.41723681  0.44540019  0.41067463    -0.38700
N203        N  0.03353366  0.34253920  0.50909916    -0.38100
N204        N  0.35821555  0.44124027  0.49981924    -0.38100
C205        C  0.16466865  0.37761232  0.47312439    -0.04800
C206        C  0.15821456  0.35817195  0.50449333    -0.01900
C207        C  0.18250893  0.35612153  0.53416088     0.03100
C208        C  0.21461501  0.37223036  0.53203505    -0.04800
C209        C  0.22220543  0.38980805  0.49894451    -0.01900
C210        C  0.19715361  0.39266754  0.46995141     0.03100
C211        C  0.12745694  0.33850217  0.50539919     0.37800
C212        C  0.25634105  0.40386021  0.49328835     0.37700
C213        C  0.20482729  0.41113560  0.43682293     0.36200
C214        C  0.17411277  0.33744026  0.56696604     0.36200
N215        N  0.21104036  0.42582500  0.41039587    -0.38700
N216        N  0.16725895  0.32249501  0.59299811    -0.38700
N217        N  0.28357041  0.41495183  0.48835468    -0.38100
N218        N  0.10386084  0.32168643  0.50672760    -0.38100
C219        C  0.12138759  0.99071769  0.37611383    -0.04800
C220        C  0.14412928  0.99564783  0.40725919    -0.01900
C221        C  0.16182249  0.02439186  0.41229643     0.03100
C222        C  0.15439760  0.04992612  0.38875980    -0.04800
C223        C  0.12980886  0.04560026  0.35902930    -0.01900
C224        C  0.11484597  0.01595030  0.35180408     0.03100
C225        C  0.14272568  0.47326059  0.43870495     0.37800
C226        C  0.11791125  0.07194794  0.33687336     0.37700
C227        C  0.09311342  0.01151109  0.31878494     0.36200
C228        C  0.18802504  0.02736884  0.44161408     0.36200
N229        N  0.08276610  0.50457133  0.28752958    -0.38700
N230        N  0.20911901  0.02951378  0.46480831    -0.38700
N231        N  0.10811537  0.09296852  0.31945661    -0.38100
N232        N  0.14272270  0.45659507  0.46418920    -0.38100
C233        C  0.10190819  0.29916031  0.38381173    -0.04800
C234        C  0.09560269  0.27462025  0.40925977    -0.01900
C235        C  0.11400695  0.24609656  0.40565507     0.03100
C236        C  0.13590184  0.23997779  0.37397444    -0.04800
C237        C  0.14156224  0.26407406  0.34779976    -0.01900
C238        C  0.12540239  0.29362467  0.35303336     0.03100
C239        C  0.06974498  0.27823761  0.43911888     0.37800
C240        C  0.16489284  0.25903236  0.31590992     0.37700
C241        C  0.13471043  0.31855657  0.32736305     0.36200
C242        C  0.11337816  0.22478352  0.43718814     0.36200
N243        N  0.14233792  0.33834783  0.30687350    -0.38700
N244        N  0.11327909  0.20892299  0.46342023    -0.38700
N245        N  0.18370144  0.25563656  0.29052686    -0.38100
N246        N  0.04891404  0.28064782  0.46277375    -0.38100
C247        C  0.35273542  0.45497700  0.61043799    -0.04800
C248        C  0.37890298  0.45904931  0.63859913    -0.01900
C249        C  0.39470128  0.48855206  0.64473995     0.03100
C250        C  0.38498161  0.01317081  0.62172080    -0.04800
C251        C  0.36198072  0.50921797  0.59167997    -0.01900
C252        C  0.34368390  0.48072464  0.58803226     0.03100
C253        C  0.39131095  0.43263031  0.66027079     0.37800
C254        C  0.35698722  0.03149920  0.56227515     0.37700
C255        C  0.31489267  0.47831600  0.56159124     0.36200
C256        C  0.41957470  0.49239470  0.67522583     0.36200
N257        N  0.29172958  0.47669493  0.54075029    -0.38700
N258        N  0.43943615  0.49525836  0.69954003    -0.38700
N259        N  0.35382583  0.04866475  0.53752824    -0.38100
N260        N  0.40156914  0.41163323  0.67741901    -0.38100
C261        C  0.40665150  0.20579831  0.61000589    -0.04800
C262        C  0.39562940  0.21627148  0.64669102    -0.01900
C263        C  0.37798915  0.24521574  0.65161454     0.03100
C264        C  0.37276083  0.26507331  0.62083894    -0.04800
C265        C  0.38508887  0.25575065  0.58483284    -0.01900
C266        C  0.40143651  0.22639370  0.57928183     0.03100
C267        C  0.40215175  0.19777104  0.68007513     0.37800
C268        C  0.37970933  0.27575571  0.55247598     0.37700
C269        C  0.41169827  0.21777987  0.54118922     0.36200
C270        C  0.36533911  0.25479767  0.68859524     0.36200
N271        N  0.41901819  0.21191706  0.51025521    -0.38700
N272        N  0.35504237  0.26244706  0.71799429    -0.38700
N273        N  0.37590039  0.29089420  0.52593478    -0.38100
N274        N  0.40728819  0.18323340  0.70686502    -0.38100
C275        C  0.48836124  0.02766453  0.51771572    -0.04800
C276        C  0.98383415  0.02199369  0.47847621    -0.01900
C277        C  0.99887815  0.99533708  0.46145174     0.03100
C278        C  0.02460177  0.47599206  0.48258331    -0.04800
C279        C  0.03177783  0.48373978  0.52019868    -0.01900
C280        C  0.51204821  0.00810476  0.53772868     0.03100
C281        C  0.96343690  0.04376187  0.45626402     0.37800
C282        C  0.55162280  0.46329648  0.53748703     0.37700
C283        C  0.52144696  0.01522758  0.57645735     0.36200
C284        C  0.99198349  0.98937175  0.42189215     0.36200
N285        N  0.53189386  0.52307316  0.60426536    -0.38700
N286        N  0.98629668  0.98475549  0.39035216    -0.38700
N287        N  0.57054802  0.44695902  0.55346129    -0.38100
N288        N  0.94742607  0.06124295  0.43850341    -0.38100
C289        C  0.29495859  0.13187321  0.46189066    -0.04800
C290        C  0.33000140  0.13894636  0.45318690    -0.01900
C291        C  0.35648327  0.13422824  0.48026659     0.03100
C292        C  0.34807743  0.12287522  0.51685047    -0.04800
C293        C  0.31277431  0.11693991  0.52595498    -0.01900
C294        C  0.28644489  0.12127902  0.49871329     0.03100
C295        C  0.33889322  0.15078879  0.41615803     0.37800
C296        C  0.30339493  0.10554521  0.56309262     0.37700
C297        C  0.25028074  0.11611179  0.50969453     0.36200
C298        C  0.39236230  0.14173780  0.47022580     0.36200
N299        N  0.22158826  0.11220034  0.51910863    -0.38700
N300        N  0.42089855  0.14754756  0.46174574    -0.38700
N301        N  0.29584505  0.09640149  0.59263959    -0.38100
N302        N  0.34597665  0.16033173  0.38667017    -0.38100
C303        C  0.09465589  0.12865148  0.47836146    -0.04800
C304        C  0.06228958  0.14410128  0.47641155    -0.01900
C305        C  0.03793542  0.14182904  0.50643385     0.03100
C306        C  0.04448565  0.12196805  0.53792799    -0.04800
C307        C  0.07605934  0.10452596  0.53801895    -0.01900
C308        C  0.10102808  0.10816888  0.50876395     0.03100
C309        C  0.05388496  0.16225640  0.44324505     0.37800
C310        C  0.08334944  0.08285913  0.56826915     0.37700
C311        C  0.13277427  0.08950266  0.50922586     0.36200
C312        C  0.00609610  0.16015990  0.50395661     0.36200
N313        N  0.15761160  0.07397604  0.51006594    -0.38700
N314        N  0.98108011  0.17532379  0.50178137    -0.38700
N315        N  0.08928870  0.06536666  0.59212618    -0.38100
N316        N  0.04695678  0.17645904  0.41666762    -0.38100
C317        C  0.27320977  0.15567945  0.21378526    -0.04800
C318        C  0.24085218  0.17188392  0.21927288    -0.01900
C319        C  0.22070059  0.16758230  0.25225676     0.03100
C320        C  0.23384280  0.14942185  0.28198933    -0.04800
C321        C  0.26630400  0.13349013  0.27686908    -0.01900
C322        C  0.28546390  0.13611282  0.24271735     0.03100
C323        C  0.22850865  0.19427116  0.19170444     0.37800
C324        C  0.27977363  0.11372593  0.30654709     0.37700
C325        C  0.31718929  0.11790772  0.23701531     0.36200
C326        C  0.18659724  0.18250476  0.25563399     0.36200
N327        N  0.34240921  0.10327112  0.23231052    -0.38700
N328        N  0.15914208  0.19394979  0.25787953    -0.38700
N329        N  0.29057135  0.09803581  0.33026152    -0.38100
N330        N  0.21850938  0.21215669  0.16992112    -0.38100
C331        C  0.23045406  0.35751562  0.78013817    -0.04800
C332        C  0.26247643  0.37402559  0.77591726    -0.01900
C333        C  0.28212338  0.37183661  0.74203709     0.03100
C334        C  0.27009272  0.35308654  0.71188280    -0.04800
C335        C  0.23725460  0.33744286  0.71601314    -0.01900
C336        C  0.21734271  0.34038455  0.74940097     0.03100
C337        C  0.27504175  0.39378559  0.80641092     0.37800
C338        C  0.22382191  0.31693774  0.68673825     0.37700
C339        C  0.18378244  0.32458744  0.75239407     0.36200
C340        C  0.31433435  0.38942791  0.73826682     0.36200
N341        N  0.15692379  0.31223935  0.75450841    -0.38700
N342        N  0.33998266  0.40359046  0.73562431    -0.38700
N343        N  0.21220825  0.30058438  0.66393104    -0.38100
N344        N  0.28499014  0.40951350  0.83077772    -0.38100
C345        C  0.23997513  0.28111510  0.97943200    -0.04800
C346        C  0.25662675  0.25702769  0.95750751    -0.01900
C347        C  0.27338422  0.23163172  0.97503028     0.03100
C348        C  0.27415725  0.22995266  0.01442559    -0.04800
C349        C  0.25866139  0.25477077  0.03634305    -0.01900
C350        C  0.24179019  0.28004955  0.01879582     0.03100
C351        C  0.25770182  0.25842184  0.91660757     0.37800
C352        C  0.25807022  0.25407181  0.07731081     0.37700
C353        C  0.22501403  0.30431726  0.04144659     0.36200
C354        C  0.29119907  0.20795260  0.95246100     0.36200
N355        N  0.21165816  0.32362202  0.05952848    -0.38700
N356        N  0.30562471  0.18916813  0.93453608    -0.38700
N357        N  0.25756008  0.25389255  0.10991659    -0.38100
N358        N  0.25849233  0.25927436  0.88402364    -0.38100
C359        C  0.02281467  0.40459493  0.28100620    -0.04800
C360        C  0.02124007  0.37732033  0.25842655    -0.01900
C361        C  0.49945905  0.37740687  0.22135463     0.03100
C362        C  0.48087595  0.40451071  0.21043664    -0.04800
C363        C  0.98208498  0.43050986  0.23763215    -0.01900
C364        C  0.00308747  0.43116592  0.27028300     0.03100
C365        C  0.53596917  0.34879814  0.26748889     0.37800
C366        C  0.96327976  0.45846288  0.22645863     0.37700
C367        C  0.00513147  0.45980969  0.29229412     0.36200
C368        C  0.49801273  0.34957918  0.19782584     0.36200
N369        N  0.00662579  0.48289805  0.30937653    -0.38700
N370        N  0.49686751  0.32749551  0.17883828    -0.38700
N371        N  0.94847695  0.48089439  0.21773817    -0.38100
N372        N  0.54863009  0.32575250  0.27758736    -0.38100
C373        C  0.09630913  0.37200424  0.97939195    -0.04800
C374        C  0.10100127  0.39493019  0.00779364    -0.01900
C375        C  0.07712900  0.39754918  0.03807175     0.03100
C376        C  0.04726134  0.37801028  0.03962966    -0.04800
C377        C  0.04341091  0.35428840  0.01137929    -0.01900
C378        C  0.06725400  0.35207722  0.98094193     0.03100
C379        C  0.12914095  0.41751235  0.00455973     0.37800
C380        C  0.01487993  0.33203463  0.01261171     0.37700
C381        C  0.06107748  0.33006361  0.95037545     0.36200
C382        C  0.08367707  0.42054097  0.06750773     0.36200
N383        N  0.05566622  0.31277004  0.92586379    -0.38700
N384        N  0.08904211  0.43892006  0.09086310    -0.38700
N385        N  0.99245268  0.31393601  0.01337106    -0.38100
N386        N  0.15084668  0.43621889  0.00219553    -0.38100
C387        C  0.34584168  0.38925830  0.01218531    -0.04800
C388        C  0.35500210  0.37581327  0.97658370    -0.01900
C389        C  0.32918246  0.37019791  0.94906156     0.03100
C390        C  0.29413354  0.37854020  0.95628121    -0.04800
C391        C  0.28491344  0.39149549  0.99207112    -0.01900
C392        C  0.31058377  0.39650089  0.01986897     0.03100
C393        C  0.39098358  0.36698424  0.96813259     0.37800
C394        C  0.24867954  0.39848882  0.00151911     0.37700
C395        C  0.30051333  0.40940190  0.05625778     0.36200
C396        C  0.33875585  0.35598572  0.91317000     0.36200
N397        N  0.29196814  0.41946452  0.08523310    -0.38700
N398        N  0.34636821  0.34452526  0.88461904    -0.38700
N399        N  0.21992878  0.40403807  0.00961932    -0.38100
N400        N  0.41965469  0.36016916  0.96109624    -0.38100
C401        C  0.39452167  0.99793769  0.12518226    -0.04800
C402        C  0.35775855  0.00180172  0.12983103    -0.01900
C403        C  0.34138295  0.03061304  0.12134916     0.03100
C404        C  0.36157631  0.05623722  0.10943464    -0.04800
C405        C  0.39864930  0.05366037  0.11059741    -0.01900
C406        C  0.41498740  0.02459208  0.11742638     0.03100
C407        C  0.33244239  0.47668045  0.14011611     0.37800
C408        C  0.42074871  0.08093729  0.10701465     0.37700
C409        C  0.45294337  0.02231546  0.11520729     0.36200
C410        C  0.30391376  0.03432512  0.12668616     0.36200
N411        N  0.48317836  0.02069515  0.11319345    -0.38700
N412        N  0.27408624  0.03727072  0.13156995    -0.38700
N413        N  0.44015351  0.10161921  0.10560685    -0.38100
N414        N  0.31542645  0.45689713  0.15251953    -0.38100
C415        C  0.39988984  0.30584698  0.10517669    -0.04800
C416        C  0.39453888  0.28419042  0.07530106    -0.01900
C417        C  0.37953954  0.25470150  0.08233637     0.03100
C418        C  0.36734422  0.24678906  0.11878683    -0.04800
C419        C  0.37177303  0.26816644  0.14853447    -0.01900
C420        C  0.38879875  0.29703279  0.14228405     0.03100
C421        C  0.40363039  0.29177715  0.03666422     0.37800
C422        C  0.35969700  0.25994976  0.18601272     0.37700
C423        C  0.39464435  0.31713889  0.17478830     0.36200
C424        C  0.37641209  0.23285329  0.05107007     0.36200
N425        N  0.39932522  0.33294873  0.20088873    -0.38700
N426        N  0.37472698  0.21669420  0.02487701    -0.38700
N427        N  0.34998445  0.25337901  0.21585229    -0.38100
N428        N  0.41011521  0.29713777  0.00549938    -0.38100
C429        C  0.01736353  0.10350469  0.78653115    -0.04800
C430        C  0.48767997  0.08464858  0.78134702    -0.01900
C431        C  0.46687160  0.08723614  0.74864892     0.03100
C432        C  0.47722215  0.10708399  0.71918903    -0.04800
C433        C  0.00536093  0.12635672  0.72453563    -0.01900
C434        C  0.02518435  0.12551939  0.75825072     0.03100
C435        C  0.47855028  0.06110874  0.80895182     0.37800
C436        C  0.01385426  0.14906362  0.69576817     0.37700
C437        C  0.05303570  0.14793113  0.76400518     0.36200
C438        C  0.43545410  0.06849004  0.74481537     0.36200
N439        N  0.07504672  0.16612308  0.76825973    -0.38700
N440        N  0.41015379  0.05383118  0.74202778    -0.38700
N441        N  0.02044422  0.16716672  0.67276198    -0.38100
N442        N  0.47135887  0.04221591  0.83080081    -0.38100
C443        C  0.48595864  0.47740502  0.00423013    -0.04800
C444        C  0.47991102  0.00734166  0.01136052    -0.01900
C445        C  0.50310357  0.03241923  0.00565930     0.03100
C446        C  0.03565152  0.02727971  0.98837192    -0.04800
C447        C  0.04751267  0.99635340  0.98127042    -0.01900
C448        C  0.01737959  0.47213592  0.98841117     0.03100
C449        C  0.44378094  0.01374275  0.02183728     0.37800
C450        C  0.08297388  0.99105140  0.96777304     0.37700
C451        C  0.02572078  0.44126777  0.97402376     0.36200
C452        C  0.49453186  0.06265800  0.02153909     0.36200
N453        N  0.03162887  0.41697272  0.96095834    -0.38700
N454        N  0.48808609  0.08615175  0.03628930    -0.38700
N455        N  0.11147803  0.98663953  0.95784045    -0.38100
N456        N  0.41471151  0.01882417  0.02907527    -0.38100
C457        C  0.10828939  0.20352277  0.88869348    -0.04800
C458        C  0.12928519  0.20887590  0.85600165    -0.01900
C459        C  0.14441553  0.23845561  0.84954840     0.03100
C460        C  0.14083220  0.26241608  0.87666068    -0.04800
C461        C  0.12299507  0.25605172  0.91087399    -0.01900
C462        C  0.10497204  0.22767448  0.91579225     0.03100
C463        C  0.13803317  0.18347289  0.83024036     0.37800
C464        C  0.12663642  0.27687873  0.94305847     0.37700
C465        C  0.08365038  0.22342385  0.94929628     0.36200
C466        C  0.16461510  0.24379780  0.81548120     0.36200
N467        N  0.06662308  0.22054903  0.97609682    -0.38700
N468        N  0.18095453  0.24778536  0.78839855    -0.38700
N469        N  0.13005540  0.29239389  0.96961995    -0.38100
N470        N  0.14553225  0.16322574  0.80991349    -0.38100
C471        C  0.15099347  0.45384742  0.88591064    -0.04800
C472        C  0.16985957  0.48110439  0.89411973    -0.01900
C473        C  0.15561935  0.51074741  0.88547781     0.03100
C474        C  0.12216111  0.01346807  0.86694792    -0.04800
C475        C  0.10347500  0.48569313  0.85938898    -0.01900
C476        C  0.11788443  0.45623102  0.86825632     0.03100
C477        C  0.20431163  0.47852477  0.91106393     0.37800
C478        C  0.07024030  0.48690836  0.83972550     0.37700
C479        C  0.09767074  0.42822637  0.86044718     0.36200
C480        C  0.18089815  0.03753484  0.88079706     0.36200
N481        N  0.08133896  0.40604850  0.85424987    -0.38700
N482        N  0.19958504  0.05876630  0.88215375    -0.38700
N483        N  0.04381273  0.48775877  0.82389263    -0.38100
N484        N  0.23174938  0.47634634  0.92456293    -0.38100
C485        C  0.21544386  0.13023690  0.03364067    -0.04800
C486        C  0.20062272  0.15456286  0.01190687    -0.01900
C487        C  0.18437862  0.14794785  0.97713365     0.03100
C488        C  0.17541212  0.11708438  0.96728085    -0.04800
C489        C  0.18771965  0.09253986  0.99021530    -0.01900
C490        C  0.20875988  0.09892100  0.02216333     0.03100
C491        C  0.19908433  0.18633865  0.02614892     0.37800
C492        C  0.17892493  0.06048801  0.98068288     0.37700
C493        C  0.22204775  0.07298334  0.04395967     0.36200
C494        C  0.17820082  0.17319243  0.95114687     0.36200
N495        N  0.23253361  0.05201035  0.06095814    -0.38700
N496        N  0.17555641  0.19384162  0.93056244    -0.38700
N497        N  0.17203576  0.03485123  0.97334793    -0.38100
N498        N  0.19599079  0.21154718  0.03769682    -0.38100
C499        C  0.41541603  0.13827837  0.01882280    -0.04800
C500        C  0.40942102  0.12023343  0.98575789    -0.01900
C501        C  0.43652241  0.11517157  0.95923372     0.03100
C502        C  0.47000805  0.12814962  0.96525104    -0.04800
C503        C  0.47567738  0.14680532  0.99820527    -0.01900
C504        C  0.44852973  0.15154030  0.02485244     0.03100
C505        C  0.37541270  0.10604522  0.97927051     0.37800
C506        C  0.01137832  0.15782392  0.01063464     0.37700
C507        C  0.45475496  0.16988078  0.05874269     0.36200
C508        C  0.42968192  0.09666646  0.92561282     0.36200
N509        N  0.45968107  0.18429698  0.08592466    -0.38700
N510        N  0.42418270  0.08184689  0.89887624    -0.38700
N511        N  0.03927378  0.16524919  0.01958115    -0.38100
N512        N  0.34829254  0.09485544  0.97396865    -0.38100
O513        O  0.07078571  0.54784058  0.86056625    -0.84800
O514        O  0.05526493  0.54779102  0.93349120    -0.81800
C515        C  0.04599458  0.55460986  0.96625970     0.98700
O516        O  0.04581065  0.58337596  0.97613990    -0.81900
O517        O  0.11353957  0.60154942  0.96057080    -0.84500
C518        C  0.14074043  0.61171076  0.94508159     1.03200
O519        O  0.13963806  0.62116412  0.91094942    -0.77300
O520        O  0.12113654  0.56917900  0.87180660    -0.77500
C521        C  0.10357592  0.54497393  0.86617005     1.03200
O522        O  0.01985951  0.59884551  0.85189354    -0.84800
O523        O  0.50103439  0.59284233  0.92578523    -0.81800
C524        C  0.49789348  0.62051347  0.93892901     0.98700
O525        O  0.02370696  0.63983559  0.93693795    -0.81900
O526        O  0.09177669  0.66086985  0.92940230    -0.84500
C527        C  0.09388288  0.67220100  0.89625381     1.03200
O528        O  0.08640324  0.65512098  0.86850967    -0.77300
O529        O  0.07089454  0.60313991  0.82417621    -0.77400
C530        C  0.03736176  0.60246251  0.82229456     1.03100
Cr531      Cr  0.03823027  0.57408801  0.89323700     1.93700
Cr532      Cr  0.06881704  0.62045426  0.94801811     1.93200
Cr533      Cr  0.10235446  0.61156824  0.87049134     1.39100
O534        O  0.06966439  0.60230834  0.90363823    -1.22500
O535        O  0.39188052  0.94357881  0.11228170    -0.84800
O536        O  0.37308975  0.89052562  0.07298143    -0.81800
C537        C  0.37662243  0.89741467  0.03814264     0.98700
O538        O  0.40561023  0.90647170  0.02611615    -0.81900
O539        O  0.47410822  0.92208979  0.01863337    -0.84500
C540        C  0.47421067  0.95105551  0.02768765     1.03200
O541        O  0.46440155  0.95908736  0.06003550    -0.77300
O542        O  0.44232008  0.96071728  0.13201842    -0.77500
C543        C  0.41039993  0.96585088  0.12375761     1.03200
O544        O  0.43369164  0.90757977  0.16675011    -0.84800
O545        O  0.41891680  0.85606555  0.12336717    -0.81800
C546        C  0.41448478  0.83761550  0.09627607     0.98700
O547        O  0.42078865  0.84740119  0.06295562    -0.81900
O548        O  0.49030251  0.86565809  0.06174300    -0.84500
C549        C  0.01885228  0.88226772  0.06504698     1.03200
O550        O  0.01664331  0.91031177  0.07698589    -0.77300
O551        O  0.48784390  0.90681445  0.14562792    -0.77400
C552        C  0.46666613  0.90468505  0.17260155     1.03100
Cr553      Cr  0.40655178  0.89994250  0.11728078     1.93700
Cr554      Cr  0.44744052  0.88641432  0.04511211     1.93200
Cr555      Cr  0.47547704  0.93242262  0.10232256     1.39100
O556        O  0.44318039  0.90605497  0.08836408    -1.22500
O557        O  0.14112101  0.81712676  0.88299834    -0.84800
O558        O  0.12474456  0.87049778  0.92122619    -0.81800
C559        C  0.12993811  0.86441257  0.95592941     0.98700
O560        O  0.15995561  0.85782265  0.96743299    -0.81900
O561        O  0.22806244  0.83920322  0.96877258    -0.84500
C562        C  0.22787817  0.81029327  0.95950138     1.03200
O563        O  0.21408678  0.80190243  0.92947419    -0.77300
O564        O  0.18996364  0.79868165  0.85989278    -0.77500
C565        C  0.15925970  0.79409609  0.87275423     1.03200
O566        O  0.18041223  0.85217175  0.82476099    -0.84800
O567        O  0.16725170  0.90396416  0.86673464    -0.81800
C568        C  0.16634857  0.92302447  0.89365321     0.98700
O569        O  0.17476233  0.91451429  0.92676870    -0.81900
O570        O  0.24315665  0.89386170  0.92191103    -0.84500
C571        C  0.26912264  0.87621833  0.92473379     1.03200
O572        O  0.26643773  0.84834624  0.91228315    -0.77300
O573        O  0.23553349  0.85160367  0.84227390    -0.77400
C574        C  0.21304905  0.85516720  0.81703765     1.03100
Cr575      Cr  0.15561262  0.86041924  0.87526347     1.93700
Cr576      Cr  0.20105160  0.87531260  0.94363700     1.93200
Cr577      Cr  0.22478841  0.82704031  0.88637523     1.39100
O578        O  0.19366373  0.85454040  0.90167702    -1.22500
O579        O  0.32021224  0.71099309  0.13671734    -0.84800
O580        O  0.30315104  0.71078617  0.06541137    -0.81800
C581        C  0.29100223  0.70523990  0.03385299     0.98700
O582        O  0.28813778  0.67679739  0.02281155    -0.81900
O583        O  0.35436671  0.65395409  0.02922585    -0.84500
C584        C  0.38272086  0.64500914  0.04286469     1.03200
O585        O  0.38487010  0.63875559  0.07787088    -0.77300
O586        O  0.36919877  0.69128298  0.11656696    -0.77500
C587        C  0.35151509  0.71484549  0.12542410     1.03200
O588        O  0.26979287  0.66006618  0.14697178    -0.84800
O589        O  0.24502258  0.66772674  0.07532865    -0.81800
C590        C  0.24030221  0.64034587  0.06205094     0.98700
O591        O  0.26504737  0.62100392  0.06387473    -0.81900
O592        O  0.33393309  0.59698512  0.06567288    -0.84500
C593        C  0.34130343  0.58715390  0.09871355     1.03200
O594        O  0.33797208  0.60486570  0.12685629    -0.77300
O595        O  0.32252337  0.65660936  0.17080740    -0.77400
C596        C  0.28899615  0.65622580  0.17505602     1.03100
Cr597      Cr  0.28600382  0.68547565  0.10570290     1.93700
Cr598      Cr  0.31055973  0.63799402  0.04828170     1.93200
Cr599      Cr  0.35144789  0.64853586  0.12173135     1.39100
O600        O  0.31587257  0.65659274  0.09218561    -1.22500
O601        O  0.43552432  0.54800961  0.63728506    -0.84800
O602        O  0.45891150  0.54828032  0.56693115    -0.81800
C603        C  0.47209197  0.55573238  0.53618056     0.98700
O604        O  0.47356356  0.58449457  0.52697255    -0.81900
O605        O  0.40657624  0.60733050  0.53169802    -0.84500
C606        C  0.37792114  0.61748870  0.54412652     1.03200
O607        O  0.37462563  0.62394909  0.57921151    -0.77300
O608        O  0.38742803  0.56941502  0.61711629    -0.77500
C609        C  0.40408445  0.54522984  0.62593885     1.03200
O610        O  0.48560078  0.59789571  0.65376250    -0.84800
O611        O  0.01247103  0.59204483  0.58121129    -0.81800
C612        C  0.01602065  0.61931057  0.56750661     0.98700
O613        O  0.99089384  0.63791466  0.57057125    -0.81900
O614        O  0.42755904  0.66318580  0.57128311    -0.84500
C615        C  0.42050589  0.67369927  0.60417755     1.03200
O616        O  0.42093942  0.65514650  0.63139950    -0.77300
O617        O  0.43119958  0.60248493  0.67366275    -0.77400
C618        C  0.46422352  0.60312079  0.68006252     1.03100
Cr619      Cr  0.47195603  0.57366036  0.60972867     1.93700
Cr620      Cr  0.45002124  0.62237127  0.55343972     1.93200
Cr621      Cr  0.40578816  0.61191625  0.62391183     1.39100
O622        O  0.44243012  0.60282560  0.59577117    -1.22500
O623        O  0.12011202  0.93501320  0.37747565    -0.84800
O624        O  0.13314249  0.88034422  0.41416997    -0.81800
C625        C  0.13112945  0.88663203  0.44939962     0.98700
O626        O  0.10329200  0.89745703  0.46321467    -0.81900
O627        O  0.03597053  0.91999865  0.47167892    -0.84500
C628        C  0.03851775  0.94872758  0.46288745     1.03200
O629        O  0.05263386  0.95570599  0.43254324    -0.77300
O630        O  0.07170638  0.95778884  0.36082611    -0.77500
C631        C  0.10360617  0.95972590  0.37057013     1.03200
O632        O  0.07273328  0.90291779  0.32250681    -0.84800
O633        O  0.08383654  0.84949109  0.36475437    -0.81800
C634        C  0.08775175  0.83142115  0.39221712     0.98700
O635        O  0.08132425  0.84179647  0.42532197    -0.81900
O636        O  0.01381898  0.86658118  0.42647843    -0.84500
C637        C  0.48985423  0.88677239  0.43092608     1.03200
O638        O  0.49398200  0.91389431  0.41707324    -0.77300
O639        O  0.01945824  0.91005851  0.34508411    -0.77400
C640        C  0.03950647  0.90507455  0.31757519     1.03100
Cr641      Cr  0.10024182  0.89271246  0.37107555     1.93700
Cr642      Cr  0.05889838  0.88250003  0.44391087     1.93200
Cr643      Cr  0.03609561  0.93223580  0.38943345     1.39100
O644        O  0.06494535  0.90199110  0.40103185    -1.22500
O645        O  0.37110019  0.82063917  0.61918612    -0.84800
O646        O  0.38474044  0.87514230  0.58272424    -0.81800
C647        C  0.38486175  0.86832877  0.54757350     0.98700
O648        O  0.35839459  0.85664463  0.53237372    -0.81900
O649        O  0.29261708  0.83153001  0.52036722    -0.84500
C650        C  0.29443639  0.80304832  0.53088864     1.03200
O651        O  0.30759912  0.79727553  0.56192954    -0.77300
O652        O  0.32243386  0.79760894  0.63478020    -0.77500
C653        C  0.35483031  0.79606456  0.62659970     1.03200
O654        O  0.31925650  0.85175857  0.67069202    -0.84800
O655        O  0.33087714  0.90456598  0.62914232    -0.81800
C656        C  0.33590256  0.92257963  0.60197012     0.98700
O657        O  0.33197244  0.91231592  0.56830099    -0.81900
O658        O  0.26568518  0.88580909  0.56160722    -0.84500
C659        C  0.24229141  0.86556844  0.55783093     1.08000
O660        O  0.24723047  0.83839592  0.57119785    -0.77300
O661        O  0.26801131  0.84540189  0.64423692    -0.77400
C662        C  0.28569360  0.85060688  0.67317596     1.03100
Cr663      Cr  0.34951125  0.86220587  0.62391549     1.93700
Cr664      Cr  0.31244740  0.87062132  0.54832191     1.93200
Cr665      Cr  0.28782008  0.82157442  0.60279451     1.39100
O666        O  0.31647752  0.85192581  0.59189734    -1.22500
O667        O  0.18605657  0.70511808  0.36003656    -0.84800
O668        O  0.20505538  0.70614384  0.43155883    -0.81800
C669        C  0.21840785  0.69999946  0.46243759     0.98700
O670        O  0.21899370  0.67164127  0.47347022    -0.81900
O671        O  0.15175231  0.64824596  0.46677325    -0.84500
C672        C  0.12394364  0.63767907  0.45315134     1.03200
O673        O  0.12222481  0.63083463  0.41810419    -0.77300
O674        O  0.13711305  0.68496364  0.37995700    -0.77500
C675        C  0.15444972  0.70863351  0.37067171     1.03200
O676        O  0.23703810  0.65492397  0.34730188    -0.84800
O677        O  0.26229838  0.66227081  0.41995801    -0.81800
C678        C  0.26636450  0.63539927  0.43443433     0.98700
O679        O  0.24193208  0.61598985  0.43235290    -0.81900
O680        O  0.17439575  0.59154973  0.42988448    -0.84500
C681        C  0.16896491  0.58128450  0.39646515     1.03200
O682        O  0.17276134  0.59939261  0.36920708    -0.77300
O683        O  0.18333111  0.65082070  0.32610531    -0.77400
C684        C  0.21649959  0.65008074  0.32035361     1.03100
Cr685      Cr  0.22103207  0.68010157  0.39020409     1.93700
Cr686      Cr  0.19643109  0.63288456  0.44787602     1.93200
Cr687      Cr  0.15588289  0.64221360  0.37481921     1.39100
O688        O  0.19117900  0.65135999  0.40419017    -1.22500
C689        C  0.27495066  0.77696750  0.51268367    -0.04800
C690        C  0.27751421  0.77122987  0.47384861    -0.01900
C691        C  0.25956587  0.74569286  0.45772446     0.03100
C692        C  0.23875005  0.72549187  0.48054702    -0.04800
C693        C  0.23685524  0.73076232  0.51947010    -0.01900
C694        C  0.25465875  0.75634143  0.53553509     0.03100
C695        C  0.30016451  0.79054074  0.45083152     0.37800
C696        C  0.21570086  0.71042382  0.54289693     0.37700
C697        C  0.25166507  0.76110850  0.57593414     0.36200
C698        C  0.26355421  0.73994935  0.41751767     0.36200
N699        N  0.24961656  0.76427816  0.60825598    -0.38700
N700        N  0.26662048  0.73557162  0.38544023    -0.38700
N701        N  0.19885408  0.69422484  0.56157954    -0.38100
N702        N  0.31849507  0.80575187  0.43254883    -0.38100
C703        C  0.41400274  0.87639292  0.52180992    -0.04800
C704        C  0.40745161  0.89705232  0.49165966    -0.01900
C705        C  0.43095996  0.89905649  0.46095045     0.03100
C706        C  0.46234991  0.88144343  0.46067790    -0.04800
C707        C  0.46966526  0.86222510  0.49248387    -0.01900
C708        C  0.44533932  0.85934528  0.52235065     0.03100
C709        C  0.37656470  0.91687469  0.49235123     0.37800
C710        C  0.98247437  0.82539486  0.47032392     0.37700
C711        C  0.45227010  0.83837362  0.55345186     0.36200
C712        C  0.42218058  0.91893490  0.42940371     0.36200
N713        N  0.45783490  0.82165477  0.57820749    -0.38700
N714        N  0.41487894  0.93479405  0.40435294    -0.38700
N715        N  0.00001496  0.80399888  0.46344253    -0.38100
N716        N  0.35243907  0.93329802  0.49237224    -0.38100
C717        C  0.16012971  0.87960872  0.47596520    -0.04800
C718        C  0.15248961  0.86585117  0.51143712    -0.01900
C719        C  0.17909555  0.86170622  0.53843103     0.03100
C720        C  0.21353988  0.87130036  0.53051151    -0.04800
C721        C  0.22140427  0.88403270  0.49450842    -0.01900
C722        C  0.19485000  0.88801473  0.46742728     0.03100
C723        C  0.11730339  0.85524225  0.52020258     0.37800
C724        C  0.25709150  0.89205611  0.48429621     0.37700
C725        C  0.20318915  0.90157182  0.43109635     0.36200
C726        C  0.17085705  0.84806512  0.57471128     0.36200
N727        N  0.20971012  0.91241582  0.40213702    -0.38700
N728        N  0.16434076  0.83719420  0.60364982    -0.38700
N729        N  0.28542015  0.89843802  0.47561434    -0.38100
N730        N  0.08928931  0.84686892  0.52749479    -0.38100
C731        C  0.12253769  0.48988806  0.37527391    -0.04800
C732        C  0.14245967  0.49562976  0.40827840    -0.01900
C733        C  0.15968976  0.52445192  0.41383489     0.03100
C734        C  0.15413255  0.54936740  0.38872943    -0.04800
C735        C  0.13219634  0.54411696  0.35675519    -0.01900
C736        C  0.11779908  0.51430181  0.34945634     0.03100
C737        C  0.14726793  0.97243584  0.43651505     0.37800
C738        C  0.12259858  0.56949941  0.33185423     0.37700
C739        C  0.09817170  0.50881993  0.31509741     0.36200
C740        C  0.18362067  0.52797688  0.44522922     0.36200
N741        N  0.07619302  0.00821623  0.29209228    -0.38700
N742        N  0.20298069  0.53041067  0.47007520    -0.38700
N743        N  0.11466399  0.58965090  0.31203769    -0.38100
N744        N  0.14980464  0.95509920  0.46117394    -0.38100
C745        C  0.10408399  0.79952616  0.38601601    -0.04800
C746        C  0.10290536  0.77652306  0.41455818    -0.01900
C747        C  0.12010873  0.74750263  0.40954454     0.03100
C748        C  0.13819437  0.74026307  0.37561902    -0.04800
C749        C  0.14133985  0.76354889  0.34802071    -0.01900
C750        C  0.12463421  0.79293456  0.35306336     0.03100
C751        C  0.08550728  0.78263547  0.45034099     0.37800
C752        C  0.16275247  0.75779310  0.31477143     0.37700
C753        C  0.13104048  0.81681590  0.32505574     0.36200
C754        C  0.12177055  0.72634173  0.44125525     0.36200
N755        N  0.13658983  0.83576733  0.30272087    -0.38700
N756        N  0.12309482  0.71058152  0.46753951    -0.38700
N757        N  0.18020596  0.75379753  0.28841446    -0.38100
N758        N  0.07255670  0.78690291  0.47947464    -0.38100
C759        C  0.35135093  0.95415603  0.60982802    -0.04800
C760        C  0.37707521  0.95806162  0.63847161    -0.01900
C761        C  0.39285516  0.98753053  0.64508216     0.03100
C762        C  0.38664662  0.51397566  0.62116034    -0.04800
C763        C  0.36092632  0.00845777  0.59161018    -0.01900
C764        C  0.34292342  0.97987925  0.58717889     0.03100
C765        C  0.38915934  0.93143533  0.66000541     0.37800
C766        C  0.35751334  0.53219161  0.56232209     0.37700
C767        C  0.31527054  0.97717162  0.55938202     0.36200
C768        C  0.41769867  0.99101562  0.67564687     0.36200
N769        N  0.29301189  0.97508818  0.53748251    -0.38700
N770        N  0.43760654  0.99345741  0.69998027    -0.38700
N771        N  0.35397422  0.54941117  0.53768381    -0.38100
N772        N  0.39914224  0.91025629  0.67702542    -0.38100
C773        C  0.40773998  0.70683134  0.61056909    -0.04800
C774        C  0.39952856  0.71819428  0.64763100    -0.01900
C775        C  0.38113194  0.74673332  0.65286131     0.03100
C776        C  0.37332831  0.76564045  0.62182048    -0.04800
C777        C  0.38491951  0.75625413  0.58555660    -0.01900
C778        C  0.40031060  0.72661001  0.57962413     0.03100
C779        C  0.41027280  0.70120758  0.68090957     0.37800
C780        C  0.38105217  0.77688637  0.55356774     0.37700
C781        C  0.40692155  0.71669314  0.54101613     0.36200
C782        C  0.37116591  0.75724120  0.69039700     0.36200
N783        N  0.41133561  0.70938275  0.50988495    -0.38700
N784        N  0.36319025  0.76570945  0.72029427    -0.38700
N785        N  0.37892952  0.79243433  0.52716319    -0.38100
N786        N  0.41896657  0.68790249  0.70757099    -0.38100
C787        C  0.49037963  0.53052614  0.51524864    -0.04800
C788        C  0.98497289  0.52145294  0.47826484    -0.01900
C789        C  0.00121847  0.49515503  0.46154186     0.03100
C790        C  0.01970321  0.97425765  0.48280652    -0.04800
C791        C  0.02472720  0.97980596  0.52134555    -0.01900
C792        C  0.51371533  0.51049121  0.53500202     0.03100
C793        C  0.96001532  0.54001819  0.45720342     0.37800
C794        C  0.55161971  0.96196985  0.54026309     0.37700
C795        C  0.52379158  0.51761270  0.57352331     0.36200
C796        C  0.99307127  0.48771820  0.42261034     0.36200
N797        N  0.52895002  0.02059747  0.60739920    -0.38700
N798        N  0.98641206  0.48216414  0.39150815    -0.38700
N799        N  0.57116571  0.94617996  0.55618590    -0.38100
N800        N  0.94003496  0.55480880  0.44053708    -0.38100
C801        C  0.29528582  0.62969665  0.46164335    -0.04800
C802        C  0.33028062  0.63590560  0.45188284    -0.01900
C803        C  0.35709980  0.63242848  0.47887261     0.03100
C804        C  0.34912215  0.62287677  0.51638178    -0.04800
C805        C  0.31385979  0.61754798  0.52634000    -0.01900
C806        C  0.28721972  0.62067180  0.49917591     0.03100
C807        C  0.33872658  0.64544530  0.41375605     0.37800
C808        C  0.30476519  0.60826094  0.56442525     0.37700
C809        C  0.25122347  0.61579887  0.51088997     0.36200
C810        C  0.39281502  0.63961907  0.46776711     0.36200
N811        N  0.22271125  0.61209809  0.52101512    -0.38700
N812        N  0.42120342  0.64527036  0.45853938    -0.38700
N813        N  0.29745667  0.60091556  0.59477992    -0.38100
N814        N  0.34532193  0.65303300  0.38330959    -0.38100
C815        C  0.09496722  0.63129608  0.48018814    -0.04800
C816        C  0.06288513  0.64723980  0.47777053    -0.01900
C817        C  0.03788189  0.64486457  0.50716350     0.03100
C818        C  0.04467647  0.62614592  0.53958833    -0.04800
C819        C  0.07713478  0.61046404  0.54181888    -0.01900
C820        C  0.10159249  0.61234096  0.51196445     0.03100
C821        C  0.05572871  0.66643058  0.44511499     0.37800
C822        C  0.08609113  0.59318739  0.57548757     0.37700
C823        C  0.13303292  0.59335519  0.51339517     0.36200
C824        C  0.00516052  0.66176728  0.50312720     0.36200
N825        N  0.15750016  0.57743353  0.51503029    -0.38700
N826        N  0.97933282  0.67563436  0.49963291    -0.38700
N827        N  0.09339949  0.57970192  0.60248546    -0.38100
N828        N  0.04995295  0.68169790  0.41908603    -0.38100
C829        C  0.27050647  0.65341872  0.21250693    -0.04800
C830        C  0.23774357  0.66903796  0.21835264    -0.01900
C831        C  0.21832656  0.66497084  0.25190872     0.03100
C832        C  0.23228011  0.64739059  0.28169291    -0.04800
C833        C  0.26437527  0.63108028  0.27576227    -0.01900
C834        C  0.28291015  0.63352379  0.24111605     0.03100
C835        C  0.22383304  0.69037543  0.19044419     0.37800
C836        C  0.27791813  0.61094345  0.30503274     0.37700
C837        C  0.31379018  0.61442574  0.23437393     0.36200
C838        C  0.18407727  0.67957098  0.25582271     0.36200
N839        N  0.33818405  0.59889251  0.22881425    -0.38700
N840        N  0.15651798  0.69074255  0.25859585    -0.38700
N841        N  0.28867356  0.59488434  0.32840976    -0.38100
N842        N  0.21237669  0.70727951  0.16835472    -0.38100
C843        C  0.22676620  0.85933713  0.77805938    -0.04800
C844        C  0.25730381  0.87752744  0.77207445    -0.01900
C845        C  0.27661886  0.87482725  0.73807983     0.03100
C846        C  0.26582198  0.85376575  0.70963687    -0.04800
C847        C  0.23372780  0.83718760  0.71490973    -0.01900
C848        C  0.21410803  0.84056793  0.74849836     0.03100
C849        C  0.26870089  0.89942551  0.80094473     0.37800
C850        C  0.22079973  0.81545350  0.68668881     0.37700
C851        C  0.18140776  0.82366360  0.75301332     0.36200
C852        C  0.30696524  0.89451728  0.73218223     0.36200
N853        N  0.15516535  0.81048233  0.75637448    -0.38700
N854        N  0.33099899  0.91048363  0.72769193    -0.38700
N855        N  0.20948813  0.79809979  0.66478698    -0.38100
N856        N  0.27772158  0.91688856  0.82398532    -0.38100
C857        C  0.24753793  0.78596959  0.97961652    -0.04800
C858        C  0.26782351  0.76393512  0.95842607    -0.01900
C859        C  0.28115808  0.73691977  0.97562312     0.03100
C860        C  0.27609670  0.73264410  0.01436217    -0.04800
C861        C  0.25826707  0.75621574  0.03608991    -0.01900
C862        C  0.24327129  0.78224522  0.01843960     0.03100
C863        C  0.27548822  0.76916420  0.91882203     0.37800
C864        C  0.25302885  0.75308388  0.07650261     0.37700
C865        C  0.22140216  0.80398215  0.03974930     0.36200
C866        C  0.30101953  0.71412368  0.95375378     0.36200
N867        N  0.20367356  0.82115756  0.05655472    -0.38700
N868        N  0.31687615  0.69592552  0.93635649    -0.38700
N869        N  0.24893906  0.75089261  0.10870221    -0.38100
N870        N  0.28160657  0.77330660  0.88728170    -0.38100
C871        C  0.02258711  0.90483294  0.27964406    -0.04800
C872        C  0.02149112  0.87750837  0.25711304    -0.01900
C873        C  0.50570981  0.87815928  0.22008536     0.03100
C874        C  0.48219416  0.90270917  0.21111628    -0.04800
C875        C  0.98095050  0.92990684  0.23640351    -0.01900
C876        C  0.00200596  0.93096019  0.26901306     0.03100
C877        C  0.54893751  0.85355930  0.26291927     0.37800
C878        C  0.96073894  0.95722003  0.22575147     0.37700
C879        C  0.00284951  0.95948899  0.29131872     0.36200
C880        C  0.50849341  0.85129216  0.19508120     0.36200
N881        N  0.00323235  0.98247524  0.30867213    -0.38700
N882        N  0.51055657  0.82981511  0.17516030    -0.38700
N883        N  0.94466675  0.97905982  0.21743422    -0.38100
N884        N  0.56712664  0.83284820  0.27035947    -0.38100
C885        C  0.10189864  0.86683092  0.98482647    -0.04800
C886        C  0.10798220  0.88428610  0.01830093    -0.01900
C887        C  0.08211433  0.88646014  0.04658328     0.03100
C888        C  0.04930811  0.87213026  0.04136202    -0.04800
C889        C  0.04418659  0.85273449  0.00895324    -0.01900
C890        C  0.07033961  0.85033842  0.98079851     0.03100
C891        C  0.14011813  0.90177108  0.02313021     0.37800
C892        C  0.01147537  0.83642211  0.00282630     0.37700
C893        C  0.06426469  0.83162347  0.94715059     0.36200
C894        C  0.08927149  0.90385112  0.08101218     0.36200
N895        N  0.05922636  0.81674493  0.92035535    -0.38700
N896        N  0.09498577  0.91770314  0.10843079    -0.38700
N897        N  0.98560603  0.82315194  0.99748978    -0.38100
N898        N  0.16537599  0.91608560  0.02781549    -0.38100
C899        C  0.34879395  0.89210744  0.00946245    -0.04800
C900        C  0.35725643  0.87635355  0.97509550    -0.01900
C901        C  0.33171783  0.87204157  0.94687342     0.03100
C902        C  0.29788278  0.88481900  0.95148704    -0.04800
C903        C  0.29029117  0.90244823  0.98489503    -0.01900
C904        C  0.31517095  0.90500091  0.01412319     0.03100
C905        C  0.39242020  0.86440819  0.96837017     0.37800
C906        C  0.25701911  0.91842046  0.98977202     0.37700
C907        C  0.30642886  0.92177386  0.04860975     0.36200
C908        C  0.34057162  0.85490305  0.91264646     0.36200
N909        N  0.29922257  0.93505680  0.07610970    -0.38700
N910        N  0.34748422  0.84116304  0.88536788    -0.38700
N911        N  0.23093928  0.93192406  0.99357148    -0.38100
N912        N  0.42054881  0.85537187  0.96250742    -0.38100
C913        C  0.39085277  0.49827388  0.12333302    -0.04800
C914        C  0.35388056  0.50176678  0.12540969    -0.01900
C915        C  0.33768565  0.53028217  0.11553869     0.03100
C916        C  0.35809745  0.55617502  0.10512032    -0.04800
C917        C  0.39511996  0.55384741  0.10796718    -0.01900
C918        C  0.41139761  0.52504532  0.11637236     0.03100
C919        C  0.33691081  0.97667343  0.14538098     0.37800
C920        C  0.41725104  0.58104049  0.10388929     0.37700
C921        C  0.44943361  0.52325632  0.11705054     0.36200
C922        C  0.29996024  0.53330653  0.11790304     0.36200
N923        N  0.47973481  0.52206191  0.11756310    -0.38700
N924        N  0.26983555  0.53534824  0.12044606    -0.38700
N925        N  0.43680114  0.60157777  0.10197933    -0.38100
N926        N  0.32039701  0.95677259  0.15830056    -0.38100
C927        C  0.39900509  0.80569868  0.10411162    -0.04800
C928        C  0.39574875  0.78304190  0.07503091    -0.01900
C929        C  0.38025675  0.75373297  0.08226214     0.03100
C930        C  0.36687241  0.74637668  0.11847314    -0.04800
C931        C  0.36965297  0.76864445  0.14753698    -0.01900
C932        C  0.38544064  0.79801911  0.14069560     0.03100
C933        C  0.40763395  0.78943785  0.03695370     0.37800
C934        C  0.35740128  0.76079768  0.18506934     0.37700
C935        C  0.38668797  0.82014364  0.17189175     0.36200
C936        C  0.37760315  0.73163851  0.05123842     0.36200
N937        N  0.38749682  0.83764754  0.19690694    -0.38700
N938        N  0.37627298  0.71552762  0.02499121    -0.38700
N939        N  0.34784541  0.75445037  0.21504044    -0.38100
N940        N  0.41641865  0.79377228  0.00619359    -0.38100
C941        C  0.01731787  0.60397675  0.78575138    -0.04800
C942        C  0.48860158  0.58574851  0.78152648    -0.01900
C943        C  0.46814026  0.58830798  0.74854140     0.03100
C944        C  0.47950438  0.60714473  0.71853441    -0.04800
C945        C  0.00812528  0.62503743  0.72229992    -0.01900
C946        C  0.02789579  0.62360462  0.75598054     0.03100
C947        C  0.47826525  0.56303884  0.80966845     0.37800
C948        C  0.01935685  0.64569326  0.69233224     0.37700
C949        C  0.05875918  0.64292125  0.75991347     0.36200
C950        C  0.43600703  0.57049422  0.74503710     0.36200
N951        N  0.08326738  0.65860829  0.76244847    -0.38700
N952        N  0.41018093  0.55654345  0.74252760    -0.38700
N953        N  0.02825101  0.66216200  0.66843459    -0.38100
N954        N  0.47010093  0.54481597  0.83195432    -0.38100
C955        C  0.49083662  0.97614116  0.00475933    -0.04800
C956        C  0.47503130  0.50855163  0.01088845    -0.01900
C957        C  0.49831075  0.53357989  0.00539309     0.03100
C958        C  0.02942750  0.52871805  0.98819375    -0.04800
C959        C  0.03972037  0.49742105  0.98007994    -0.01900
C960        C  0.02574379  0.97050165  0.98887278     0.03100
C961        C  0.43884697  0.51485594  0.02124720     0.37800
C962        C  0.07428030  0.49095003  0.96476987     0.37700
C963        C  0.03631812  0.93975061  0.97620124     0.36200
C964        C  0.48957961  0.56379297  0.02109126     0.36200
N965        N  0.04448360  0.91568029  0.96405071    -0.38700
N966        N  0.48298494  0.58726426  0.03576729    -0.38700
N967        N  0.10206448  0.48560022  0.95326624    -0.38100
N968        N  0.40969336  0.51970953  0.02830174    -0.38100
C969        C  0.10958715  0.70386740  0.88931071    -0.04800
C970        C  0.13083779  0.70922160  0.85674477    -0.01900
C971        C  0.14697857  0.73856738  0.85086281     0.03100
C972        C  0.14434854  0.76222640  0.87850123    -0.04800
C973        C  0.12628435  0.75574884  0.91254658    -0.01900
C974        C  0.10730784  0.72776605  0.91690321     0.03100
C975        C  0.13920013  0.68389130  0.83078776     0.37800
C976        C  0.13003074  0.77635915  0.94494267     0.37700
C977        C  0.08559877  0.72395951  0.95016018     0.36200
C978        C  0.16706871  0.74399364  0.81675776     0.36200
N979        N  0.06828819  0.72171998  0.97683535    -0.38700
N980        N  0.18328065  0.74804354  0.78959957    -0.38700
N981        N  0.13347800  0.79179017  0.97156742    -0.38100
N982        N  0.14672990  0.66369878  0.81040426    -0.38100
C983        C  0.15136179  0.95427037  0.88589693    -0.04800
C984        C  0.17177170  0.98132807  0.88935925    -0.01900
C985        C  0.15779337  0.01066504  0.87907223     0.03100
C986        C  0.12145694  0.51352389  0.86907931    -0.04800
C987        C  0.10251851  0.98566375  0.86179524    -0.01900
C988        C  0.11718059  0.95639131  0.87086397     0.03100
C989        C  0.20762962  0.97878477  0.90254130     0.37800
C990        C  0.06712845  0.98657316  0.84702826     0.37700
C991        C  0.09664963  0.92822782  0.86501110     0.36200
C992        C  0.17690173  0.53797705  0.89380815     0.36200
N993        N  0.08035275  0.90583711  0.85995154    -0.38700
N994        N  0.19436718  0.55938455  0.90038045    -0.38700
N995        N  0.03888672  0.98702199  0.83529789    -0.38100
N996        N  0.23622241  0.97674681  0.91298502    -0.38100
C997        C  0.21063956  0.63322477  0.03583508    -0.04800
C998        C  0.19951241  0.65617428  0.01003314    -0.01900
C999        C  0.18357408  0.64747556  0.97583842     0.03100
C1000       C  0.17114706  0.61683328  0.97050021    -0.04800
C1001       C  0.17921745  0.59409641  0.99799848    -0.01900
C1002       C  0.19957412  0.60207539  0.02987132     0.03100
C1003       C  0.19973046  0.68891335  0.02028553     0.37800
C1004       C  0.16646197  0.56235654  0.99352702     0.37700
C1005       C  0.20608585  0.57881989  0.05839611     0.36200
C1006       C  0.18062378  0.67037470  0.94625000     0.36200
N1007       N  0.21023130  0.56012888  0.08130191    -0.38700
N1008       N  0.18032092  0.68891500  0.92274942    -0.38700
N1009       N  0.15621824  0.53707584  0.99007996    -0.38100
N1010       N  0.19716572  0.71502750  0.02839622    -0.38100
C1011       C  0.41219189  0.63965941  0.01605549    -0.04800
C1012       C  0.40616298  0.62299128  0.98191037    -0.01900
C1013       C  0.43364576  0.61788551  0.95582920     0.03100
C1014       C  0.46746591  0.62950998  0.96334159    -0.04800
C1015       C  0.47314529  0.64698720  0.99715293    -0.01900
C1016       C  0.44556706  0.65206247  0.02315441     0.03100
C1017       C  0.37172459  0.61029123  0.97375221     0.37800
C1018       C  0.00970058  0.65981339  0.00758401     0.37700
C1019       C  0.45167191  0.66989572  0.05744273     0.36200
C1020       C  0.42696440  0.60049797  0.92131860     0.36200
N1021       N  0.45656050  0.68404445  0.08483197    -0.38700
N1022       N  0.42148475  0.58653269  0.89392015    -0.38700
N1023       N  0.03761710  0.66784158  0.01562402    -0.38100
N1024       N  0.34423724  0.60037666  0.96710685    -0.38100
O1025       O  0.57340244  0.04770241  0.85860139    -0.84800
O1026       O  0.55993610  0.04667046  0.93217670    -0.81800
C1027       C  0.55154316  0.05340579  0.96524674     0.98700
O1028       O  0.55096534  0.08217895  0.97521535    -0.81900
O1029       O  0.61740471  0.10286690  0.95846918    -0.84500
C1030       C  0.64394245  0.11352726  0.94221465     1.03200
O1031       O  0.64196133  0.12241044  0.90796007    -0.77300
O1032       O  0.62363616  0.06867148  0.87076901    -0.77500
C1033       C  0.60604184  0.04450992  0.86452029     1.03200
O1034       O  0.52151698  0.09762268  0.85199311    -0.84800
O1035       O  0.00288883  0.09289771  0.92800356    -0.81800
C1036       C  0.00068946  0.12032334  0.94221178     0.98700
O1037       O  0.52530050  0.13787504  0.93699597    -0.81900
O1038       O  0.59209978  0.16109327  0.92672232    -0.84500
C1039       C  0.59336268  0.17187500  0.89321492     1.03200
O1040       O  0.58701643  0.15407568  0.86583967    -0.77300
O1041       O  0.57219185  0.10176184  0.82323943    -0.77400
C1042       C  0.53864291  0.10141494  0.82212691     1.03100
Cr1043     Cr  0.54116747  0.07284545  0.89263344     1.93700
Cr1044     Cr  0.57156773  0.12003508  0.94663798     1.93200
Cr1045     Cr  0.60419342  0.11104541  0.86866364     1.39100
O1046       O  0.57213544  0.10166071  0.90244004    -1.22500
O1047       O  0.88920500  0.44276461  0.11579273    -0.84800
O1048       O  0.87239526  0.38828897  0.07735547    -0.81800
C1049       C  0.87580565  0.39394611  0.04218303     0.98700
O1050       O  0.90455605  0.40319140  0.02963665    -0.81900
O1051       O  0.97150619  0.42309287  0.02313632    -0.84500
C1052       C  0.97034904  0.45214877  0.03178496     1.03200
O1053       O  0.96075858  0.46025188  0.06425321    -0.77300
O1054       O  0.93882990  0.46055987  0.13664402    -0.77500
C1055       C  0.90718112  0.46539461  0.12738604     1.03200
O1056       O  0.93209577  0.40786825  0.17084695    -0.84800
O1057       O  0.91872589  0.35586007  0.12857804    -0.81800
C1058       C  0.91652449  0.33685204  0.10171590     0.98700
O1059       O  0.92348539  0.34637617  0.06847974    -0.81900
O1060       O  0.99160788  0.36834826  0.06796921    -0.84500
C1061       C  0.51456140  0.38518707  0.06017679     1.03200
O1062       O  0.51194805  0.41301594  0.07279880    -0.77300
O1063       O  0.98634296  0.40845632  0.14970269    -0.77400
C1064       C  0.96513520  0.40548701  0.17656302     1.03100
Cr1065     Cr  0.90523712  0.39936671  0.12151315     1.93700
Cr1066     Cr  0.94755118  0.38625832  0.05003465     1.93200
Cr1067     Cr  0.97302288  0.43393049  0.10660778     1.39100
O1068       O  0.94177909  0.40638463  0.09267368    -1.22500
O1069       O  0.63878466  0.31822067  0.87948944    -0.84800
O1070       O  0.62293113  0.37248840  0.91647140    -0.81800
C1071       C  0.62580171  0.36646557  0.95141656     0.98700
O1072       O  0.65459983  0.35825815  0.96498877    -0.81900
O1073       O  0.72217042  0.33650551  0.97057146    -0.84500
C1074       C  0.72090781  0.30769945  0.96084584     1.03200
O1075       O  0.70683889  0.30062961  0.93058998    -0.77300
O1076       O  0.68783471  0.29829251  0.85916776    -0.77500
C1077       C  0.65645236  0.29458750  0.87023777     1.03200
O1078       O  0.68283209  0.35197950  0.82414015    -0.84800
O1079       O  0.66975859  0.40438335  0.86554977    -0.81800
C1080       C  0.66795802  0.42316405  0.89278556     0.98700
O1081       O  0.67481761  0.41416514  0.92614214    -0.81900
O1082       O  0.74250417  0.39085506  0.92591210    -0.84500
C1083       C  0.76743377  0.37208718  0.92947482     1.03200
O1084       O  0.76377220  0.34437619  0.91673808    -0.77300
O1085       O  0.73705618  0.34869770  0.84454205    -0.77400
C1086       C  0.71590582  0.35319234  0.81812931     1.03100
Cr1087     Cr  0.65576575  0.36113682  0.87284529     1.93700
Cr1088     Cr  0.69814691  0.37390523  0.94427343     1.93200
Cr1089     Cr  0.72232060  0.32494809  0.88819207     1.39100
O1090       O  0.69210133  0.35387536  0.90148426    -1.22500
O1091       O  0.82022296  0.21073649  0.13836284    -0.84800
O1092       O  0.80383995  0.21055902  0.06681909    -0.81800
C1093       C  0.79198315  0.20494956  0.03515873     0.98700
O1094       O  0.79109361  0.17646687  0.02377980    -0.81900
O1095       O  0.85835845  0.15509298  0.03215842    -0.84500
C1096       C  0.88633533  0.14593109  0.04650890     1.03200
O1097       O  0.88767034  0.13935890  0.08144299    -0.77300
O1098       O  0.87012143  0.19144727  0.11990556    -0.77500
C1099       C  0.85187724  0.21477194  0.12830967     1.03200
O1100       O  0.77099200  0.15856030  0.14737699    -0.84800
O1101       O  0.74733891  0.16576075  0.07531559    -0.81800
C1102       C  0.74398214  0.13865427  0.06072911     0.98700
O1103       O  0.76918765  0.11990609  0.06328091    -0.81900
O1104       O  0.83833283  0.09734729  0.06717972    -0.84500
C1105       C  0.84476322  0.08721085  0.10032567     1.03200
O1106       O  0.84019296  0.10460725  0.12861273    -0.77300
O1107       O  0.82325043  0.15647769  0.17246756    -0.77400
C1108       C  0.78973210  0.15572742  0.17595622     1.03100
Cr1109     Cr  0.78712556  0.18449810  0.10665130     1.93700
Cr1110     Cr  0.81442257  0.13805498  0.04943716     1.93200
Cr1111     Cr  0.85308307  0.14857861  0.12423513     1.39100
O1112       O  0.81810035  0.15637212  0.09368594    -1.22500
O1113       O  0.93271566  0.04681187  0.63797396    -0.84800
O1114       O  0.95535510  0.04601780  0.56754702    -0.81800
C1115       C  0.96897172  0.05271801  0.53678969     0.98700
O1116       O  0.97021475  0.08126285  0.52662669    -0.81900
O1117       O  0.90310841  0.10448491  0.53181256    -0.84500
C1118       C  0.87488410  0.11572234  0.54403820     1.03200
O1119       O  0.87182690  0.12239376  0.57909468    -0.77300
O1120       O  0.88466446  0.06794000  0.61745767    -0.77500
C1121       C  0.90140988  0.04382354  0.62633724     1.03200
O1122       O  0.98336536  0.09640847  0.65368350    -0.84800
O1123       O  0.51316844  0.08999594  0.58274523    -0.81800
C1124       C  0.51762666  0.11702169  0.56874906     0.98700
O1125       O  0.49325835  0.13637796  0.57247237    -0.81900
O1126       O  0.92477264  0.16097496  0.57000750    -0.84500
C1127       C  0.91767412  0.17167456  0.60290168     1.03200
O1128       O  0.91924715  0.15339655  0.63032214    -0.77300
O1129       O  0.92891397  0.10107153  0.67354847    -0.77400
C1130       C  0.96194125  0.10160810  0.68003597     1.03100
Cr1131     Cr  0.96923018  0.07174080  0.60980125     1.93700
Cr1132     Cr  0.94706077  0.11966188  0.55245048     1.93200
Cr1133     Cr  0.90338865  0.11035378  0.62368692     1.39100
O1134       O  0.93989922  0.10089492  0.59546058    -1.22500
O1135       O  0.61887250  0.43551128  0.37430557    -0.84800
O1136       O  0.63183223  0.38108561  0.41212857    -0.81800
C1137       C  0.62994531  0.38756517  0.44733452     0.98700
O1138       O  0.60227686  0.39892990  0.46096276    -0.81900
O1139       O  0.53537076  0.42275700  0.46848911    -0.84500
C1140       C  0.53731359  0.45140662  0.45890599     1.03200
O1141       O  0.55012686  0.45821636  0.42779435    -0.77300
O1142       O  0.57044839  0.45776429  0.35643884    -0.77500
C1143       C  0.60221729  0.45999559  0.36668309     1.03200
O1144       O  0.57185255  0.40316983  0.32004938    -0.84800
O1145       O  0.58196666  0.35030681  0.36313980    -0.81800
C1146       C  0.58566118  0.33236774  0.39071848     0.98700
O1147       O  0.57946024  0.34309309  0.42374226    -0.81900
O1148       O  0.51246936  0.36872756  0.42417194    -0.84500
C1149       C  0.99280764  0.38803331  0.43387816     1.03200
O1150       O  0.99760856  0.41518708  0.42057370    -0.77300
O1151       O  0.51841350  0.40915835  0.34244029    -0.77400
C1152       C  0.53864626  0.40460514  0.31500997     1.03100
Cr1153     Cr  0.59898591  0.39332015  0.36879441     1.93700
Cr1154     Cr  0.55761871  0.38439878  0.44166081     1.93200
Cr1155     Cr  0.53455020  0.43306084  0.38574554     1.39100
O1156       O  0.56381312  0.40336672  0.39859534    -1.22500
O1157       O  0.87008723  0.31951505  0.61625649    -0.84800
O1158       O  0.88390867  0.37423044  0.58008534    -0.81800
C1159       C  0.88351572  0.36759120  0.54496651     0.98700
O1160       O  0.85668589  0.35633689  0.53002849    -0.81900
O1161       O  0.79066951  0.33157579  0.51948068    -0.84500
C1162       C  0.79240575  0.30316618  0.53015615     1.03200
O1163       O  0.80562123  0.29741974  0.56116035    -0.77300
O1164       O  0.82130477  0.29763649  0.63366547    -0.77500
C1165       C  0.85342823  0.29531119  0.62457400     1.03200
O1166       O  0.82041599  0.35114732  0.66916087    -0.84800
O1167       O  0.83145832  0.40402484  0.62740241    -0.81800
C1168       C  0.83594671  0.42209075  0.60014305     0.98700
O1169       O  0.83113800  0.41199636  0.56652640    -0.81900
O1170       O  0.76426765  0.38596865  0.56037551    -0.84500
C1171       C  0.74073883  0.36576093  0.55691418     1.08000
O1172       O  0.74559351  0.33882308  0.57101453    -0.77300
O1173       O  0.76823075  0.34625858  0.64431776    -0.77400
C1174       C  0.78699108  0.35036069  0.67283313     1.03100
Cr1175     Cr  0.84941969  0.36149086  0.62169354     1.93700
Cr1176     Cr  0.81100087  0.37052823  0.54684409     1.93200
Cr1177     Cr  0.78659910  0.32197901  0.60222895     1.39100
O1178       O  0.81549299  0.35187746  0.59048005    -1.22500
O1179       O  0.68336970  0.20620284  0.35884208    -0.84800
O1180       O  0.70273466  0.20688989  0.43043321    -0.81800
C1181       C  0.71680258  0.20054533  0.46087220     0.98700
O1182       O  0.71827772  0.17204692  0.47134137    -0.81900
O1183       O  0.65187051  0.14655789  0.46598514    -0.84500
C1184       C  0.62414204  0.13578138  0.45236641     1.03200
O1185       O  0.62199050  0.13009277  0.41702591    -0.77300
O1186       O  0.63505900  0.18518870  0.37932224    -0.77500
C1187       C  0.65171109  0.20913402  0.36955000     1.03200
O1188       O  0.73523186  0.15706811  0.34562892    -0.84800
O1189       O  0.76139255  0.16461084  0.41791374    -0.81800
C1190       C  0.76616588  0.13752754  0.43158393     0.98700
O1191       O  0.74236159  0.11767032  0.42812791    -0.81900
O1192       O  0.67563450  0.09157921  0.42682706    -0.84500
C1193       C  0.66965153  0.08180286  0.39333197     1.03200
O1194       O  0.67252161  0.10039370  0.36648941    -0.77300
O1195       O  0.68149350  0.15229808  0.32456971    -0.77400
C1196       C  0.71466009  0.15161471  0.31889198     1.03100
Cr1197     Cr  0.71914424  0.18169072  0.38863816     1.93700
Cr1198     Cr  0.69669527  0.13303652  0.44540474     1.93200
Cr1199     Cr  0.65471981  0.14277316  0.37338082     1.39100
O1200       O  0.69008506  0.15223975  0.40246217    -1.22500
C1201       C  0.77319857  0.27708716  0.51178807    -0.04800
C1202       C  0.77383069  0.27301183  0.47258549    -0.01900
C1203       C  0.75610410  0.24753667  0.45613250     0.03100
C1204       C  0.73705708  0.22600880  0.47899005    -0.04800
C1205       C  0.73709742  0.22966248  0.51818186    -0.01900
C1206       C  0.75468378  0.25514234  0.53459984     0.03100
C1207       C  0.79397135  0.29424694  0.44931277     0.37800
C1208       C  0.71832622  0.20757910  0.54165585     0.37700
C1209       C  0.75289661  0.25858848  0.57526688     0.36200
C1210       C  0.75882210  0.24313322  0.41557482     0.36200
N1211       N  0.75169698  0.26071817  0.60775340    -0.38700
N1212       N  0.76105604  0.23985135  0.38323836    -0.38700
N1213       N  0.70347968  0.18989695  0.56031246    -0.38100
N1214       N  0.81016801  0.31113467  0.43086970    -0.38100
C1215       C  0.91284579  0.37525230  0.51935205    -0.04800
C1216       C  0.90662904  0.39491971  0.48814400    -0.01900
C1217       C  0.93183754  0.39782637  0.45922852     0.03100
C1218       C  0.96439448  0.38238673  0.46212011    -0.04800
C1219       C  0.97139606  0.36458340  0.49510306    -0.01900
C1220       C  0.94535350  0.36032991  0.52288805     0.03100
C1221       C  0.87477262  0.41336106  0.48635784     0.37800
C1222       C  0.48491268  0.32978103  0.47323245     0.37700
C1223       C  0.95178251  0.34015368  0.55485933     0.36200
C1224       C  0.92399353  0.41663276  0.42644265     0.36200
N1225       N  0.95681321  0.32399831  0.58027921    -0.38700
N1226       N  0.91772032  0.43163460  0.40032264    -0.38700
N1227       N  0.50258953  0.30840597  0.46675016    -0.38100
N1228       N  0.84996404  0.42885628  0.48459737    -0.38100
C1229       C  0.65882649  0.38011702  0.47410167    -0.04800
C1230       C  0.65089423  0.36649447  0.50958862    -0.01900
C1231       C  0.67746681  0.36160211  0.53655857     0.03100
C1232       C  0.71207236  0.37110080  0.52905107    -0.04800
C1233       C  0.72022218  0.38332351  0.49283692    -0.01900
C1234       C  0.69383175  0.38753394  0.46554053     0.03100
C1235       C  0.61539237  0.35675335  0.51833488     0.37800
C1236       C  0.75614162  0.39002187  0.48235240     0.37700
C1237       C  0.70274384  0.40003252  0.42880318     0.36200
C1238       C  0.66914257  0.34666235  0.57203756     0.36200
N1239       N  0.70980698  0.40991069  0.39947819    -0.38700
N1240       N  0.66260667  0.33445370  0.60017621    -0.38700
N1241       N  0.78466373  0.39513642  0.47322444    -0.38100
N1242       N  0.58706706  0.34917175  0.52551425    -0.38100
C1243       C  0.62043554  0.99128335  0.37464379    -0.04800
C1244       C  0.64314817  0.99644339  0.40573050    -0.01900
C1245       C  0.66127570  0.02494835  0.41006610     0.03100
C1246       C  0.65482864  0.04994100  0.38542752    -0.04800
C1247       C  0.63151488  0.04498939  0.35453597    -0.01900
C1248       C  0.61476071  0.01585662  0.34920041     0.03100
C1249       C  0.64603186  0.47256182  0.43248945     0.37800
C1250       C  0.62367775  0.06982686  0.32817801     0.37700
C1251       C  0.59137984  0.01140144  0.31746255     0.36200
C1252       C  0.68734808  0.02807616  0.43954069     0.36200
N1253       N  0.57593380  0.50812679  0.28710444    -0.38700
N1254       N  0.70837916  0.03038163  0.46277715    -0.38700
N1255       N  0.61742834  0.08942989  0.30691796    -0.38100
N1256       N  0.64964847  0.45506829  0.45681888    -0.38100
C1257       C  0.60136160  0.30016648  0.38451294    -0.04800
C1258       C  0.60086584  0.27746970  0.41346365    -0.01900
C1259       C  0.61737152  0.24812824  0.40823162     0.03100
C1260       C  0.63475523  0.24052242  0.37402162    -0.04800
C1261       C  0.63684422  0.26331202  0.34571585    -0.01900
C1262       C  0.62043899  0.29283147  0.35072927     0.03100
C1263       C  0.58509112  0.28420926  0.44990436     0.37800
C1264       C  0.65659216  0.25680634  0.31148304     0.37700
C1265       C  0.62562831  0.31602188  0.32158421     0.36200
C1266       C  0.61874824  0.22672352  0.43974930     0.36200
N1267       N  0.63020404  0.33437687  0.29828668    -0.38700
N1268       N  0.61988409  0.21039339  0.46554088    -0.38700
N1269       N  0.67259798  0.25231022  0.28419973    -0.38100
N1270       N  0.57356815  0.28879516  0.47964329    -0.38100
C1271       C  0.85161022  0.45360334  0.60773846    -0.04800
C1272       C  0.87670891  0.45771184  0.63701760    -0.01900
C1273       C  0.89235826  0.48718929  0.64370060     0.03100
C1274       C  0.88440889  0.01244574  0.62113332    -0.04800
C1275       C  0.86214148  0.50755546  0.58879872    -0.01900
C1276       C  0.84409928  0.47903854  0.58423553     0.03100
C1277       C  0.88865042  0.43124945  0.65889988     0.37800
C1278       C  0.85318217  0.03133070  0.56372095     0.37700
C1279       C  0.81768697  0.47604132  0.55508087     0.36200
C1280       C  0.91578936  0.49123920  0.67543806     0.36200
N1281       N  0.79655136  0.47377502  0.53194905    -0.38700
N1282       N  0.93445219  0.49426056  0.70080369    -0.38700
N1283       N  0.84838586  0.04874221  0.53954003    -0.38100
N1284       N  0.89868801  0.41018086  0.67607040    -0.38100
C1285       C  0.90378471  0.20457977  0.60927377    -0.04800
C1286       C  0.89204782  0.21487272  0.64581442    -0.01900
C1287       C  0.87519161  0.24420322  0.65072524     0.03100
C1288       C  0.87097824  0.26436024  0.62004985    -0.04800
C1289       C  0.88399595  0.25515521  0.58428173    -0.01900
C1290       C  0.89907220  0.22529735  0.57858570     0.03100
C1291       C  0.89639774  0.19557205  0.67894866     0.37800
C1292       C  0.88125757  0.27608565  0.55241807     0.37700
C1293       C  0.90799385  0.21608009  0.54029169     0.36200
C1294       C  0.86294794  0.25414494  0.68773890     0.36200
N1295       N  0.91414813  0.20942168  0.50929549    -0.38700
N1296       N  0.85324207  0.26216993  0.71722472    -0.38700
N1297       N  0.87971197  0.29202147  0.52630461    -0.38100
N1298       N  0.89965412  0.18036376  0.70554315    -0.38100
C1299       C  0.98810299  0.02717147  0.51717956    -0.04800
C1300       C  0.47975330  0.02046025  0.48036871    -0.01900
C1301       C  0.49515362  0.99429061  0.46263916     0.03100
C1302       C  0.51965853  0.47716050  0.47963091    -0.04800
C1303       C  0.52783382  0.48366245  0.51732569    -0.01900
C1304       C  0.00907401  0.00616048  0.53859856     0.03100
C1305       C  0.45378712  0.03911339  0.46086635     0.37800
C1306       C  0.05643926  0.46499554  0.54136729     0.37700
C1307       C  0.01569301  0.01202727  0.57829831     0.36200
C1308       C  0.48568045  0.98720295  0.42398914     0.36200
N1309       N  0.03206789  0.52509886  0.60598897    -0.38700
N1310       N  0.47797659  0.98191906  0.39311319    -0.38700
N1311       N  0.07614157  0.45000345  0.55814963    -0.38100
N1312       N  0.43288066  0.05392864  0.44558596    -0.38100
C1313       C  0.79436461  0.13184541  0.45986588    -0.04800
C1314       C  0.82955059  0.13897779  0.45196145    -0.01900
C1315       C  0.85566538  0.13377857  0.47939490     0.03100
C1316       C  0.84670970  0.12257047  0.51594287    -0.04800
C1317       C  0.81119426  0.11699937  0.52442265    -0.01900
C1318       C  0.78534835  0.12104962  0.49649597     0.03100
C1319       C  0.83900860  0.15126274  0.41531624     0.37800
C1320       C  0.80109934  0.10613022  0.56157392     0.37700
C1321       C  0.74914137  0.11506401  0.50650102     0.36200
C1322       C  0.89182405  0.14034443  0.46957011     0.36200
N1323       N  0.72040537  0.11041654  0.51517892    -0.38700
N1324       N  0.92059595  0.14526926  0.46118575    -0.38700
N1325       N  0.79292531  0.09737412  0.59110735    -0.38100
N1326       N  0.84657043  0.16120756  0.38616257    -0.38100
C1327       C  0.59543932  0.12839642  0.47945996    -0.04800
C1328       C  0.56343234  0.14442425  0.47792915    -0.01900
C1329       C  0.53922806  0.14237364  0.50808974     0.03100
C1330       C  0.54598066  0.12291730  0.53987695    -0.04800
C1331       C  0.57785180  0.10603852  0.54051852    -0.01900
C1332       C  0.60211955  0.10849275  0.51039304     0.03100
C1333       C  0.55540013  0.16317667  0.44513241     0.37800
C1334       C  0.58646109  0.08684310  0.57273432     0.37700
C1335       C  0.63321517  0.08899164  0.51043267     0.36200
C1336       C  0.50746017  0.16072773  0.50560168     0.36200
N1337       N  0.65734714  0.07258841  0.51090637    -0.38700
N1338       N  0.48250815  0.17593844  0.50332428    -0.38700
N1339       N  0.59357085  0.07168326  0.59847003    -0.38100
N1340       N  0.54889446  0.17786829  0.41882472    -0.38100
C1341       C  0.77071038  0.15369720  0.21295447    -0.04800
C1342       C  0.73780276  0.16929900  0.21747670    -0.01900
C1343       C  0.71727051  0.16506606  0.25016603     0.03100
C1344       C  0.73065730  0.14798881  0.28062607    -0.04800
C1345       C  0.76308193  0.13194579  0.27611910    -0.01900
C1346       C  0.78274385  0.13446231  0.24232577     0.03100
C1347       C  0.72537637  0.19126413  0.18943915     0.37800
C1348       C  0.77583610  0.11206078  0.30606209     0.37700
C1349       C  0.81494295  0.11675363  0.23766768     0.36200
C1350       C  0.68243229  0.17870666  0.25237779     0.36200
N1351       N  0.84059681  0.10254021  0.23396413    -0.38700
N1352       N  0.65435054  0.18896287  0.25368161    -0.38700
N1353       N  0.78586744  0.09620595  0.33000458    -0.38100
N1354       N  0.71542297  0.20884439  0.16726645    -0.38100
C1355       C  0.73103254  0.35634750  0.77964420    -0.04800
C1356       C  0.76205079  0.37393007  0.77401412    -0.01900
C1357       C  0.78063221  0.37199134  0.73946946     0.03100
C1358       C  0.76870549  0.35213431  0.71026413    -0.04800
C1359       C  0.73723226  0.33491703  0.71603345    -0.01900
C1360       C  0.71813902  0.33777605  0.74996173     0.03100
C1361       C  0.77462968  0.39451744  0.80370029     0.37800
C1362       C  0.72473845  0.31279035  0.68800960     0.37700
C1363       C  0.68571699  0.32048357  0.75463169     0.36200
C1364       C  0.81159497  0.39099219  0.73406575     0.36200
N1365       N  0.65969088  0.30698905  0.75808702    -0.38700
N1366       N  0.83621321  0.40635946  0.73026049    -0.38700
N1367       N  0.71402160  0.29501554  0.66624809    -0.38100
N1368       N  0.78463270  0.41089430  0.82741148    -0.38100
C1369       C  0.74044360  0.28238928  0.98011240    -0.04800
C1370       C  0.75632205  0.25778520  0.95840193    -0.01900
C1371       C  0.77315813  0.23258896  0.97617013     0.03100
C1372       C  0.77526523  0.23184818  0.01559511    -0.04800
C1373       C  0.76070453  0.25731905  0.03722153    -0.01900
C1374       C  0.74317473  0.28209863  0.01942545     0.03100
C1375       C  0.75645067  0.25834175  0.91743626     0.37800
C1376       C  0.76177290  0.25795960  0.07818894     0.37700
C1377       C  0.72645272  0.30657860  0.04182162     0.36200
C1378       C  0.78933317  0.20794479  0.95366195     0.36200
N1379       N  0.71299887  0.32602793  0.05959158    -0.38700
N1380       N  0.80229511  0.18834107  0.93572332    -0.38700
N1381       N  0.76256297  0.25893908  0.11077885    -0.38100
N1382       N  0.75653334  0.25850278  0.88482088    -0.38100
C1383       C  0.52212178  0.40484101  0.27704953    -0.04800
C1384       C  0.51953250  0.37740144  0.25488722    -0.01900
C1385       C  0.00047571  0.37681382  0.22533082     0.03100
C1386       C  0.98058108  0.40336334  0.21492768    -0.04800
C1387       C  0.48335809  0.43183750  0.23268293    -0.01900
C1388       C  0.50350162  0.43191845  0.26589704     0.03100
C1389       C  0.04029584  0.34960771  0.26969975     0.37800
C1390       C  0.46655857  0.46050767  0.22051604     0.37700
C1391       C  0.50466424  0.46009554  0.28887282     0.36200
C1392       C  0.99945076  0.34892719  0.20188860     0.36200
N1393       N  0.50502939  0.48262901  0.30708678    -0.38700
N1394       N  0.99852866  0.32669139  0.18314510    -0.38700
N1395       N  0.45356397  0.48359837  0.21103410    -0.38100
N1396       N  0.05543185  0.32744246  0.27873390    -0.38100
C1397       C  0.59662761  0.37112612  0.97834663    -0.04800
C1398       C  0.60176718  0.39087335  0.00994937    -0.01900
C1399       C  0.57677324  0.39237723  0.03911028     0.03100
C1400       C  0.54492412  0.37596118  0.03579696    -0.04800
C1401       C  0.54008724  0.35559014  0.00416204    -0.01900
C1402       C  0.56567642  0.35366332  0.97537738     0.03100
C1403       C  0.63127518  0.41207353  0.01101521     0.37800
C1404       C  0.50840828  0.33735090  0.99971067     0.37700
C1405       C  0.55930569  0.33496404  0.94179159     0.36200
C1406       C  0.58404820  0.41100410  0.07255367     0.36200
N1407       N  0.55394031  0.32027524  0.91491962    -0.38700
N1408       N  0.58992772  0.42576572  0.09923607    -0.38700
N1409       N  0.48340406  0.32250230  0.99576001    -0.38100
N1410       N  0.65388300  0.42995957  0.01212202    -0.38100
C1411       C  0.84769337  0.38772632  0.01397401    -0.04800
C1412       C  0.85609505  0.37254354  0.97918494    -0.01900
C1413       C  0.83028641  0.36806260  0.95120867     0.03100
C1414       C  0.79609439  0.37973607  0.95674624    -0.04800
C1415       C  0.78819764  0.39595376  0.99102001    -0.01900
C1416       C  0.81348566  0.39900157  0.01973185     0.03100
C1417       C  0.89142401  0.36130764  0.97179833     0.37800
C1418       C  0.75398386  0.40973567  0.99749461     0.37700
C1419       C  0.80435152  0.41452326  0.05491067     0.36200
C1420       C  0.83925653  0.35222607  0.91614306     0.36200
N1421       N  0.79663708  0.42674552  0.08294194    -0.38700
N1422       N  0.84632440  0.33963009  0.88812480    -0.38700
N1423       N  0.72708440  0.42142080  0.00293187    -0.38100
N1424       N  0.91965429  0.35276500  0.96544334    -0.38100
C1425       C  0.89505621  0.99830792  0.12384397    -0.04800
C1426       C  0.85816776  0.00187087  0.12730359    -0.01900
C1427       C  0.84167452  0.03042067  0.11799376     0.03100
C1428       C  0.86181152  0.05627490  0.10671906    -0.04800
C1429       C  0.89892198  0.05387173  0.10830561    -0.01900
C1430       C  0.91540077  0.02501772  0.11613704     0.03100
C1431       C  0.83278594  0.47680498  0.14472791     0.37800
C1432       C  0.92096933  0.08108254  0.10397417     0.37700
C1433       C  0.95342183  0.02305051  0.11551626     0.36200
C1434       C  0.80399485  0.03352644  0.12168215     0.36200
N1435       N  0.98371935  0.02170986  0.11499518    -0.38700
N1436       N  0.77395249  0.03579578  0.12525838    -0.38700
N1437       N  0.94050764  0.10162250  0.10191815    -0.38100
N1438       N  0.81540211  0.45716381  0.15687956    -0.38100
C1439       C  0.90212873  0.30454409  0.10936465    -0.04800
C1440       C  0.89712676  0.28285003  0.07952262    -0.01900
C1441       C  0.88036563  0.25404611  0.08600137     0.03100
C1442       C  0.86740829  0.24624871  0.12219373    -0.04800
C1443       C  0.87259134  0.26721902  0.15224164    -0.01900
C1444       C  0.89030753  0.29585569  0.14628660     0.03100
C1445       C  0.90888931  0.28948945  0.04147178     0.37800
C1446       C  0.86069568  0.25876331  0.18970360     0.37700
C1447       C  0.89633694  0.31577258  0.17891526     0.36200
C1448       C  0.87620156  0.23286586  0.05425389     0.36200
N1449       N  0.90111160  0.33145809  0.20510504    -0.38700
N1450       N  0.87378610  0.21758939  0.02738751    -0.38700
N1451       N  0.85125922  0.25197936  0.21957477    -0.38100
N1452       N  0.91765985  0.29375715  0.01070090    -0.38100
C1453       C  0.51824540  0.10330168  0.78609769    -0.04800
C1454       C  0.98830034  0.08319786  0.78093134    -0.01900
C1455       C  0.96783418  0.08483758  0.74778277     0.03100
C1456       C  0.97697377  0.10559672  0.71872596    -0.04800
C1457       C  0.50689097  0.12648306  0.72430483    -0.01900
C1458       C  0.52722576  0.12465573  0.75749855     0.03100
C1459       C  0.98038139  0.05914343  0.80829584     0.37800
C1460       C  0.51626353  0.14874029  0.69530792     0.37700
C1461       C  0.55708859  0.14510986  0.76212486     0.36200
C1462       C  0.93798545  0.06429476  0.74311559     0.36200
N1463       N  0.58083192  0.16163766  0.76532760    -0.38700
N1464       N  0.91389441  0.04818417  0.73969960    -0.38700
N1465       N  0.52354442  0.16649949  0.67214778    -0.38100
N1466       N  0.97413041  0.03985438  0.82997100    -0.38100
C1467       C  0.98573158  0.47731062  0.00800644    -0.04800
C1468       C  0.98033965  0.00590065  0.01134760    -0.01900
C1469       C  0.00264332  0.03154828  0.00556447     0.03100
C1470       C  0.53550764  0.02746653  0.98738588    -0.04800
C1471       C  0.54597718  0.99622517  0.97932279    -0.01900
C1472       C  0.51842452  0.47215530  0.98626828     0.03100
C1473       C  0.94383554  0.01127065  0.02119484     0.37800
C1474       C  0.58107698  0.98993650  0.96536682     0.37700
C1475       C  0.52704351  0.44145785  0.97169205     0.36200
C1476       C  0.99244376  0.06176766  0.02020788     0.36200
N1477       N  0.53341682  0.41744829  0.95815996    -0.38700
N1478       N  0.98456742  0.08526826  0.03406673    -0.38700
N1479       N  0.60934015  0.98471696  0.95518715    -0.38100
N1480       N  0.91450407  0.01541333  0.02803900    -0.38100
C1481       C  0.60705640  0.20399179  0.88531102    -0.04800
C1482       C  0.63045528  0.20900130  0.85447709    -0.01900
C1483       C  0.64617218  0.23854666  0.84888809     0.03100
C1484       C  0.64047316  0.26297816  0.87509361    -0.04800
C1485       C  0.61937830  0.25708805  0.90729127    -0.01900
C1486       C  0.60079249  0.22882303  0.91080172     0.03100
C1487       C  0.64074463  0.18332963  0.82979142     0.37800
C1488       C  0.62060873  0.27796274  0.93962707     0.37700
C1489       C  0.57527727  0.22553184  0.94089628     0.36200
C1490       C  0.66941626  0.24316409  0.81697208     0.36200
N1491       N  0.55458141  0.22349913  0.96466906    -0.38700
N1492       N  0.68824202  0.24637255  0.79164382    -0.38700
N1493       N  0.62231023  0.29347758  0.96638753    -0.38100
N1494       N  0.64942930  0.16293026  0.81024374    -0.38100
C1495       C  0.65326051  0.45459640  0.88520363    -0.04800
C1496       C  0.67285492  0.48171825  0.89200948    -0.01900
C1497       C  0.65872416  0.51138850  0.88336030     0.03100
C1498       C  0.62336771  0.01276574  0.86728521    -0.04800
C1499       C  0.60554157  0.48651747  0.85951729    -0.01900
C1500       C  0.61992696  0.45704353  0.86814834     0.03100
C1501       C  0.70807106  0.47893825  0.90698032     0.37800
C1502       C  0.57183579  0.48775818  0.84078369     0.37700
C1503       C  0.59972170  0.42905260  0.86017253     0.36200
C1504       C  0.68164015  0.03681157  0.88320356     0.36200
N1505       N  0.58352622  0.40686150  0.85363489    -0.38700
N1506       N  0.69995600  0.05817234  0.88638346    -0.38700
N1507       N  0.54502524  0.48857122  0.82570434    -0.38100
N1508       N  0.73619209  0.47664533  0.91873295    -0.38100
C1509       C  0.71557061  0.13163981  0.03261753    -0.04800
C1510       C  0.70054665  0.15619491  0.01140233    -0.01900
C1511       C  0.68352824  0.14984521  0.97697098     0.03100
C1512       C  0.67489714  0.11896162  0.96669975    -0.04800
C1513       C  0.68736126  0.09427194  0.98926117    -0.01900
C1514       C  0.70865183  0.10043495  0.02098803     0.03100
C1515       C  0.69986409  0.18797507  0.02579840     0.37800
C1516       C  0.67783202  0.06229354  0.98009499     0.37700
C1517       C  0.72182812  0.07431890  0.04249124     0.36200
C1518       C  0.67546579  0.17551045  0.95218498     0.36200
N1519       N  0.73207498  0.05306207  0.05911597    -0.38700
N1520       N  0.67110982  0.19674266  0.93283673    -0.38700
N1521       N  0.67017508  0.03674033  0.97324300    -0.38100
N1522       N  0.69761431  0.21321338  0.03748638    -0.38100
C1523       C  0.91594989  0.13979764  0.02035201    -0.04800
C1524       C  0.91021585  0.12119260  0.98772922    -0.01900
C1525       C  0.93700829  0.11689135  0.96073058     0.03100
C1526       C  0.97060250  0.12950079  0.96705682    -0.04800
C1527       C  0.97639865  0.14779362  0.00029540    -0.01900
C1528       C  0.94886538  0.15348245  0.02619190     0.03100
C1529       C  0.87702971  0.10521790  0.98254163     0.37800
C1530       C  0.51015581  0.15900240  0.00699714     0.37700
C1531       C  0.95446515  0.17320616  0.05907287     0.36200
C1532       C  0.92979123  0.09945116  0.92639395     0.36200
N1533       N  0.95882137  0.18896162  0.08528243    -0.38700
N1534       N  0.92399046  0.08563602  0.89896628    -0.38700
N1535       N  0.53759994  0.16853940  0.01454365    -0.38100
N1536       N  0.85072075  0.09228093  0.97845076    -0.38100
O1537       O  0.57337472  0.54845250  0.86053831    -0.84800
O1538       O  0.55751741  0.54770206  0.93358445    -0.81800
C1539       C  0.54780564  0.55444089  0.96624449     0.98700
O1540       O  0.54688690  0.58318486  0.97618576    -0.81900
O1541       O  0.61434479  0.60335572  0.96239433    -0.84500
C1542       C  0.64149803  0.61358550  0.94677667     1.03200
O1543       O  0.64044568  0.62263447  0.91247850    -0.77300
O1544       O  0.62328135  0.56991187  0.87347659    -0.77500
C1545       C  0.60606937  0.54570007  0.86657832     1.03200
O1546       O  0.52174428  0.59856207  0.85214740    -0.84800
O1547       O  0.00011968  0.59432249  0.92606223    -0.81800
C1548       C  0.99791963  0.62195425  0.93965806     0.98700
O1549       O  0.52331835  0.63887570  0.93649992    -0.81900
O1550       O  0.59105224  0.66144296  0.92994763    -0.84500
C1551       C  0.59351457  0.67238095  0.89666442     1.03200
O1552       O  0.58643089  0.65504057  0.86911565    -0.77300
O1553       O  0.57302273  0.60299669  0.82497839    -0.77400
C1554       C  0.53952883  0.60222481  0.82276214     1.03100
Cr1555     Cr  0.54012428  0.57375067  0.89333399     1.93700
Cr1556     Cr  0.56899508  0.62075244  0.94855521     1.93200
Cr1557     Cr  0.60372412  0.61204988  0.87164544     1.39100
O1558       O  0.57092950  0.60236323  0.90436423    -1.22500
O1559       O  0.89299547  0.94395944  0.11142016    -0.84800
O1560       O  0.87482246  0.89049147  0.07286252    -0.81800
C1561       C  0.87916225  0.89653154  0.03787240     0.98700
O1562       O  0.90862769  0.90460331  0.02608473    -0.81900
O1563       O  0.97701446  0.92094422  0.02087772    -0.84500
C1564       C  0.97670101  0.95003647  0.02934712     1.03200
O1565       O  0.96667930  0.95855541  0.06146008    -0.77300
O1566       O  0.94282164  0.96122736  0.13269713    -0.77500
C1567       C  0.91115897  0.96630304  0.12328898     1.03200
O1568       O  0.93314483  0.90852222  0.16792368    -0.84800
O1569       O  0.91884479  0.85666769  0.12565193    -0.81800
C1570       C  0.91633087  0.83755120  0.09896478     0.98700
O1571       O  0.92341365  0.84681829  0.06564400    -0.81900
O1572       O  0.99226422  0.86540309  0.06673111    -0.84500
C1573       C  0.51705383  0.88247869  0.06102967     1.03200
O1574       O  0.51476034  0.91035227  0.07364278    -0.77300
O1575       O  0.98777825  0.90715190  0.14824251    -0.77400
C1576       C  0.96591848  0.90516041  0.17457468     1.03100
Cr1577     Cr  0.90714656  0.90042340  0.11791308     1.93700
Cr1578     Cr  0.95004633  0.88550738  0.04752098     1.93200
Cr1579     Cr  0.97662394  0.93247573  0.10440345     1.39100
O1580       O  0.94449630  0.90603272  0.08995586    -1.22500
O1581       O  0.64223477  0.81603453  0.88070938    -0.84800
O1582       O  0.62501501  0.86963011  0.91805190    -0.81800
C1583       C  0.62909151  0.86385489  0.95294858     0.98700
O1584       O  0.65865705  0.85684829  0.96559430    -0.81900
O1585       O  0.72701260  0.83686857  0.96884670    -0.84500
C1586       C  0.72722406  0.80799065  0.95919640     1.03200
O1587       O  0.71405677  0.79995866  0.92872750    -0.77300
O1588       O  0.69140655  0.79740594  0.85873124    -0.77500
C1589       C  0.66056161  0.79290822  0.87121966     1.03200
O1590       O  0.68289834  0.85067399  0.82349605    -0.84800
O1591       O  0.66887477  0.90288542  0.86519198    -0.81800
C1592       C  0.66775270  0.92180867  0.89231231     0.98700
O1593       O  0.67585577  0.91310838  0.92548309    -0.81900
O1594       O  0.74421130  0.89170599  0.92327312    -0.84500
C1595       C  0.77002655  0.87385574  0.92619882     1.03200
O1596       O  0.76725854  0.84610565  0.91340222    -0.77300
O1597       O  0.73764073  0.85033138  0.84251483    -0.77400
C1598       C  0.71567078  0.85364758  0.81668318     1.03100
Cr1599     Cr  0.65706166  0.85923303  0.87327376     1.93700
Cr1600     Cr  0.70104007  0.87353777  0.94317222     1.93200
Cr1601     Cr  0.72585759  0.82542774  0.88619055     1.39100
O1602       O  0.69451668  0.85307165  0.90081797    -1.22500
O1603       O  0.82137696  0.71140159  0.13863941    -0.84800
O1604       O  0.80428831  0.71031251  0.06727578    -0.81800
C1605       C  0.79241057  0.70413057  0.03573821     0.98700
O1606       O  0.79098486  0.67550527  0.02504279    -0.81900
O1607       O  0.85781783  0.65430151  0.03357360    -0.84500
C1608       C  0.88605966  0.64531322  0.04737455     1.03200
O1609       O  0.88804708  0.63891015  0.08232068    -0.77300
O1610       O  0.87101223  0.69194265  0.11963954    -0.77500
C1611       C  0.85285049  0.71536621  0.12792396     1.03200
O1612       O  0.77216541  0.65953956  0.14917364    -0.84800
O1613       O  0.74767106  0.66583946  0.07743261    -0.81800
C1614       C  0.74375306  0.63849207  0.06367372     0.98700
O1615       O  0.76886901  0.61963307  0.06606916    -0.81900
O1616       O  0.83776750  0.59695607  0.07018347    -0.84500
C1617       C  0.84418414  0.58740924  0.10359299     1.03200
O1618       O  0.84073985  0.60549896  0.13135804    -0.77300
O1619       O  0.82469183  0.65774939  0.17381723    -0.77400
C1620       C  0.79120826  0.65669543  0.17751691     1.03100
Cr1621     Cr  0.78787015  0.68489268  0.10785143     1.93700
Cr1622     Cr  0.81414521  0.63744929  0.05151966     1.93200
Cr1623     Cr  0.85393683  0.64914547  0.12539361     1.39100
O1624       O  0.81850406  0.65646427  0.09520616    -1.22500
O1625       O  0.93410901  0.54660405  0.63625491    -0.84800
O1626       O  0.95823557  0.54661704  0.56624562    -0.81800
C1627       C  0.97184272  0.55393508  0.53567283     0.98700
O1628       O  0.97224193  0.58258732  0.52585996    -0.81900
O1629       O  0.90420520  0.60356755  0.53086296    -0.84500
C1630       C  0.87554752  0.61409260  0.54282098     1.03200
O1631       O  0.87218034  0.62141613  0.57766105    -0.77300
O1632       O  0.88565763  0.56775874  0.61646087    -0.77500
C1633       C  0.90263473  0.54369274  0.62493747     1.03200
O1634       O  0.98353139  0.59737461  0.65281248    -0.84800
O1635       O  0.51441668  0.59217809  0.58201307    -0.81800
C1636       C  0.51850778  0.61960209  0.56908123     0.98700
O1637       O  0.49396061  0.63860072  0.57347052    -0.81900
O1638       O  0.92359560  0.66088946  0.56861087    -0.84500
C1639       C  0.91677413  0.67180112  0.60141898     1.03200
O1640       O  0.91858478  0.65372023  0.62902391    -0.77300
O1641       O  0.92911640  0.60166568  0.67254891    -0.77400
C1642       C  0.96211188  0.60256562  0.67906777     1.03100
Cr1643     Cr  0.97039300  0.57268496  0.60884926     1.93700
Cr1644     Cr  0.94730120  0.62021536  0.55157696     1.93200
Cr1645     Cr  0.90366453  0.61034469  0.62255036     1.39100
O1646       O  0.94039704  0.60127159  0.59447207    -1.22500
O1647       O  0.61960572  0.93590019  0.37705623    -0.84800
O1648       O  0.63344156  0.88166501  0.41442554    -0.81800
C1649       C  0.63097781  0.88892898  0.44940923     0.98700
O1650       O  0.60287762  0.89991778  0.46198411    -0.81900
O1651       O  0.53617621  0.92113130  0.47080596    -0.84500
C1652       C  0.53773826  0.94984037  0.46169066     1.03200
O1653       O  0.55069653  0.95713937  0.43080353    -0.77300
O1654       O  0.57103328  0.95800986  0.35943273    -0.77500
C1655       C  0.60281428  0.96030726  0.36960494     1.03200
O1656       O  0.57324176  0.90354870  0.32176261    -0.84800
O1657       O  0.58442577  0.85034384  0.36437706    -0.81800
C1658       C  0.58852027  0.83233815  0.39183246     0.98700
O1659       O  0.58211303  0.84267688  0.42504339    -0.81900
O1660       O  0.51399412  0.86712972  0.42650919    -0.84500
C1661       C  0.98911025  0.88580554  0.42942060     1.03200
O1662       O  0.99421653  0.91350170  0.41766794    -0.77300
O1663       O  0.51965719  0.90940009  0.34391851    -0.77400
C1664       C  0.54001683  0.90528284  0.31642758     1.03100
Cr1665     Cr  0.60045338  0.89358644  0.37074163     1.93700
Cr1666     Cr  0.55910501  0.88356927  0.44333599     1.93200
Cr1667     Cr  0.53542442  0.93249877  0.38807229     1.39100
O1668       O  0.56478918  0.90276163  0.40031217    -1.22500
O1669       O  0.86791113  0.81776124  0.61409730    -0.84800
O1670       O  0.88334596  0.87237031  0.57806308    -0.81800
C1671       C  0.88179042  0.86548157  0.54304237     0.98700
O1672       O  0.85394455  0.85536136  0.52903294    -0.81900
O1673       O  0.78594014  0.83389956  0.52101170    -0.84500
C1674       C  0.78486772  0.80532867  0.53124879     1.03200
O1675       O  0.79653684  0.79774466  0.56251237    -0.77300
O1676       O  0.81842923  0.79742411  0.63298849    -0.77500
C1677       C  0.85027286  0.79417665  0.62275123     1.03200
O1678       O  0.82255617  0.85033215  0.66965924    -0.84800
O1679       O  0.83333052  0.90307210  0.62823837    -0.81800
C1680       C  0.83705720  0.92153811  0.60131564     0.98700
O1681       O  0.83211807  0.91185628  0.56760486    -0.81900
O1682       O  0.76492103  0.88941388  0.56414805    -0.84500
C1683       C  0.73997273  0.87076129  0.56133739     1.08000
O1684       O  0.74293728  0.84370158  0.57541970    -0.77300
O1685       O  0.76930979  0.84948682  0.64700228    -0.77400
C1686       C  0.78937673  0.85147521  0.67464709     1.03100
Cr1687     Cr  0.84970378  0.86025565  0.62094390     1.93700
Cr1688     Cr  0.80958572  0.87150183  0.54801719     1.93200
Cr1689     Cr  0.78349415  0.82405775  0.60429053     1.39100
O1690       O  0.81440137  0.85198055  0.59092986    -1.22500
O1691       O  0.68706919  0.70568089  0.35867536    -0.84800
O1692       O  0.70701263  0.70614194  0.42968967    -0.81800
C1693       C  0.71863838  0.69933057  0.46119835     0.98700
O1694       O  0.71858675  0.67087305  0.47195456    -0.81900
O1695       O  0.65112161  0.64892981  0.46509188    -0.84500
C1696       C  0.62308744  0.63880457  0.45160511     1.03200
O1697       O  0.62091057  0.63249026  0.41646212    -0.77300
O1698       O  0.63752278  0.68667857  0.37877928    -0.77500
C1699       C  0.65556388  0.70992552  0.36944251     1.03200
O1700       O  0.73594776  0.65344308  0.34612345    -0.84800
O1701       O  0.76190104  0.66046695  0.41829505    -0.81800
C1702       C  0.76510805  0.63342767  0.43242465     0.98700
O1703       O  0.74008017  0.61473260  0.43001832    -0.81900
O1704       O  0.67219056  0.59205109  0.42733894    -0.84500
C1705       C  0.66638433  0.58220603  0.39382510     1.03200
O1706       O  0.67013256  0.60047547  0.36675958    -0.77300
O1707       O  0.68220550  0.65186953  0.32465630    -0.77400
C1708       C  0.71527711  0.64957922  0.31914646     1.03100
Cr1709     Cr  0.72132249  0.67944021  0.38858223     1.93700
Cr1710     Cr  0.69522964  0.63270021  0.44591277     1.93200
Cr1711     Cr  0.65470629  0.64357649  0.37319900     1.39100
O1712       O  0.69034681  0.65168498  0.40260216    -1.22500
C1713       C  0.76544213  0.78057659  0.51110190    -0.04800
C1714       C  0.77637944  0.77023630  0.47541918    -0.01900
C1715       C  0.76259379  0.74235499  0.46036566     0.03100
C1716       C  0.73721301  0.72483737  0.48082441    -0.04800
C1717       C  0.72577185  0.73549357  0.51619113    -0.01900
C1718       C  0.73956919  0.76337666  0.53121471     0.03100
C1719       C  0.80231333  0.78792181  0.45460245     0.37800
C1720       C  0.69893430  0.71838134  0.53644328     0.37700
C1721       C  0.72626970  0.77458153  0.56723818     0.36200
C1722       C  0.77488677  0.73174089  0.42362502     0.36200
N1723       N  0.71500792  0.78308395  0.59586265    -0.38700
N1724       N  0.78479982  0.72365492  0.39424744    -0.38700
N1725       N  0.67752965  0.70473100  0.55256808    -0.38100
N1726       N  0.82289611  0.80212285  0.43795834    -0.38100
C1727       C  0.91078210  0.87192527  0.51635849    -0.04800
C1728       C  0.90755719  0.89711252  0.49101252    -0.01900
C1729       C  0.93110820  0.90031152  0.46046606     0.03100
C1730       C  0.95848119  0.87831299  0.45474455    -0.04800
C1731       C  0.95957857  0.85165288  0.47866043    -0.01900
C1732       C  0.93700534  0.84939430  0.51016463     0.03100
C1733       C  0.87993408  0.92014129  0.49616911     0.37800
C1734       C  0.50283805  0.84627567  0.49617708     0.37700
C1735       C  0.94088329  0.82378114  0.53640049     0.36200
C1736       C  0.92567657  0.92554942  0.43402791     0.36200
N1737       N  0.94456315  0.80355677  0.55748529    -0.38700
N1738       N  0.92065865  0.94558526  0.41299881    -0.38700
N1739       N  0.52929553  0.83358983  0.49998764    -0.38100
N1740       N  0.85835640  0.93904168  0.49928038    -0.38100
C1741       C  0.65945506  0.88335148  0.47738614    -0.04800
C1742       C  0.65068990  0.87419315  0.51487678    -0.01900
C1743       C  0.67685296  0.87056519  0.54238254     0.03100
C1744       C  0.71186983  0.87727201  0.53362632    -0.04800
C1745       C  0.72073339  0.88709330  0.49654515    -0.01900
C1746       C  0.69479035  0.88926423  0.46840387     0.03100
C1747       C  0.61469686  0.86846788  0.52602952     0.37800
C1748       C  0.75672008  0.89447227  0.48668629     0.37700
C1749       C  0.70451043  0.89837428  0.43046690     0.36200
C1750       C  0.66758047  0.86062847  0.58019470     0.36200
N1751       N  0.71232995  0.90547340  0.40017779    -0.38700
N1752       N  0.66020670  0.85269076  0.61029942    -0.38700
N1753       N  0.78530299  0.90056472  0.47862409    -0.38100
N1754       N  0.58622241  0.86445253  0.53610825    -0.38100
C1755       C  0.61957250  0.49105464  0.37234332    -0.04800
C1756       C  0.64200180  0.49606711  0.40372600    -0.01900
C1757       C  0.65898105  0.52499722  0.40928817     0.03100
C1758       C  0.65139025  0.55048768  0.38584107    -0.04800
C1759       C  0.62787186  0.54587262  0.35513775    -0.01900
C1760       C  0.61319479  0.51615147  0.34779710     0.03100
C1761       C  0.64585970  0.97379813  0.43568787     0.37800
C1762       C  0.61735902  0.57177813  0.33145161     0.37700
C1763       C  0.59219565  0.51146182  0.31425937     0.36200
C1764       C  0.68497902  0.52811020  0.43882814     0.36200
N1765       N  0.57264818  0.00807238  0.29221517    -0.38700
N1766       N  0.70593342  0.53038651  0.46214434    -0.38700
N1767       N  0.60884267  0.59234993  0.31254562    -0.38100
N1768       N  0.64831666  0.95705178  0.46094362    -0.38100
C1769       C  0.60517522  0.80067020  0.38526143    -0.04800
C1770       C  0.60195773  0.77666204  0.41220950    -0.01900
C1771       C  0.62086010  0.74848032  0.40802379     0.03100
C1772       C  0.64002040  0.74180668  0.37467117    -0.04800
C1773       C  0.64376253  0.76550698  0.34766249    -0.01900
C1774       C  0.62762412  0.79508700  0.35348820     0.03100
C1775       C  0.57895675  0.77994525  0.44454010     0.37800
C1776       C  0.66465236  0.75979229  0.31404544     0.37700
C1777       C  0.63629731  0.82006084  0.32766359     0.36200
C1778       C  0.62294364  0.72763594  0.44001642     0.36200
N1779       N  0.64372336  0.83993961  0.30720538    -0.38700
N1780       N  0.62480582  0.71214327  0.46649371    -0.38700
N1781       N  0.68139194  0.75563942  0.28719081    -0.38100
N1782       N  0.56092349  0.78059875  0.47077561    -0.38100
C1783       C  0.85173841  0.95319357  0.60940277    -0.04800
C1784       C  0.87814973  0.95709658  0.63722538    -0.01900
C1785       C  0.89382911  0.98657545  0.64346824     0.03100
C1786       C  0.88544533  0.51244342  0.61952465    -0.04800
C1787       C  0.85905313  0.00790580  0.59222599    -0.01900
C1788       C  0.84157820  0.97910504  0.58794824     0.03100
C1789       C  0.89053532  0.93056638  0.65876975     0.37800
C1790       C  0.85881732  0.53037369  0.55914895     0.37700
C1791       C  0.81253513  0.97640682  0.56179264     0.36200
C1792       C  0.92041652  0.98967238  0.67233650     0.36200
N1793       N  0.78920272  0.97434785  0.54121597    -0.38700
N1794       N  0.94185257  0.99160450  0.69517851    -0.38700
N1795       N  0.85582934  0.54707455  0.53393400    -0.38100
N1796       N  0.90042212  0.90947122  0.67600019    -0.38100
C1797       C  0.90255335  0.70457182  0.60739443    -0.04800
C1798       C  0.89374580  0.71598006  0.64433679    -0.01900
C1799       C  0.87554798  0.74464662  0.64929745     0.03100
C1800       C  0.86690731  0.76293960  0.61800630    -0.04800
C1801       C  0.87710818  0.75275516  0.58159527    -0.01900
C1802       C  0.89430271  0.72380796  0.57616056     0.03100
C1803       C  0.90343674  0.69884737  0.67788862     0.37800
C1804       C  0.86982153  0.77198566  0.54900266     0.37700
C1805       C  0.90265442  0.71423070  0.53782050     0.36200
C1806       C  0.86654856  0.75591767  0.68681640     0.36200
N1807       N  0.90874959  0.70718444  0.50691941    -0.38700
N1808       N  0.85937731  0.76503863  0.71667456    -0.38700
N1809       N  0.86486193  0.78671545  0.52235785    -0.38100
N1810       N  0.91105462  0.68537944  0.70480907    -0.38100
C1811       C  0.99193734  0.52902191  0.51592625    -0.04800
C1812       C  0.48202194  0.52394551  0.47765473    -0.01900
C1813       C  0.49674473  0.49751540  0.45972221     0.03100
C1814       C  0.51910200  0.97490755  0.48245081    -0.04800
C1815       C  0.52708916  0.98165405  0.52011939    -0.01900
C1816       C  0.01585110  0.51031510  0.53677902     0.03100
C1817       C  0.45712834  0.54362469  0.45800057     0.37800
C1818       C  0.04708760  0.95909685  0.54285148     0.37700
C1819       C  0.02479022  0.51865125  0.57527592     0.36200
C1820       C  0.48770448  0.49122367  0.42073420     0.36200
N1821       N  0.02098958  0.01652995  0.60997327    -0.38700
N1822       N  0.48050968  0.48655969  0.38956032    -0.38700
N1823       N  0.06501169  0.94259128  0.55986085    -0.38100
N1824       N  0.43714222  0.55929361  0.44254236    -0.38100
C1825       C  0.79375962  0.62675421  0.45959395    -0.04800
C1826       C  0.82890807  0.63260099  0.45015285    -0.01900
C1827       C  0.85544087  0.62878837  0.47736057     0.03100
C1828       C  0.84704656  0.61914457  0.51470882    -0.04800
C1829       C  0.81176559  0.61332334  0.52408645    -0.01900
C1830       C  0.78533967  0.61710532  0.49680835     0.03100
C1831       C  0.83785001  0.64199429  0.41210035     0.37800
C1832       C  0.80253842  0.60243181  0.56149089     0.37700
C1833       C  0.74920916  0.61231147  0.50809257     0.36200
C1834       C  0.89137005  0.63541453  0.46654711     0.36200
N1835       N  0.72055574  0.60868255  0.51778270    -0.38700
N1836       N  0.91996564  0.64046787  0.45756329    -0.38700
N1837       N  0.79511172  0.59358212  0.59120739    -0.38100
N1838       N  0.84495625  0.64938744  0.38171355    -0.38100
C1839       C  0.59461398  0.63193873  0.47896560    -0.04800
C1840       C  0.56324366  0.64906207  0.47882201    -0.01900
C1841       C  0.53923671  0.64640040  0.50908878     0.03100
C1842       C  0.54638223  0.62628260  0.54019605    -0.04800
C1843       C  0.57806217  0.60920187  0.53997729    -0.01900
C1844       C  0.60145483  0.61139627  0.50919672     0.03100
C1845       C  0.55571416  0.66962701  0.44750988     0.37800
C1846       C  0.58733838  0.58992362  0.57192249     0.37700
C1847       C  0.63194292  0.59115822  0.50804152     0.36200
C1848       C  0.50703433  0.66432739  0.50713770     0.36200
N1849       N  0.65556460  0.57417062  0.50766608    -0.38700
N1850       N  0.48156725  0.67893256  0.50523881    -0.38700
N1851       N  0.59501766  0.57472950  0.59743494    -0.38100
N1852       N  0.54955245  0.68596676  0.42255687    -0.38100
C1853       C  0.77238072  0.65419895  0.21444515    -0.04800
C1854       C  0.74011791  0.67065037  0.21956253    -0.01900
C1855       C  0.71906403  0.66570634  0.25162597     0.03100
C1856       C  0.73121802  0.64661639  0.28087961    -0.04800
C1857       C  0.76275995  0.62939360  0.27556322    -0.01900
C1858       C  0.78309292  0.63297751  0.24237826     0.03100
C1859       C  0.72859883  0.69378611  0.19251297     0.37800
C1860       C  0.77356200  0.60698358  0.30373755     0.37700
C1861       C  0.81433367  0.61413705  0.23659253     0.36200
C1862       C  0.68492199  0.68065580  0.25443392     0.36200
N1863       N  0.83919000  0.59899920  0.23194165    -0.38700
N1864       N  0.65740877  0.69203961  0.25622025    -0.38700
N1865       N  0.78193649  0.58896140  0.32613898    -0.38100
N1866       N  0.71901268  0.71219551  0.17117162    -0.38100
C1867       C  0.73014423  0.85721053  0.77812294    -0.04800
C1868       C  0.75790451  0.87851783  0.77168039    -0.01900
C1869       C  0.77829719  0.87646747  0.73835368     0.03100
C1870       C  0.77221527  0.85212251  0.71226731    -0.04800
C1871       C  0.74471000  0.83067029  0.71917311    -0.01900
C1872       C  0.72244508  0.83451300  0.75057150     0.03100
C1873       C  0.76490953  0.90299973  0.79912344     0.37800
C1874       C  0.74050361  0.80336555  0.69510429     0.37700
C1875       C  0.69165561  0.81500669  0.75443049     0.36200
C1876       C  0.80487357  0.89970248  0.73062880     0.36200
N1877       N  0.66649465  0.80013538  0.75685442    -0.38700
N1878       N  0.82593368  0.91840787  0.72452919    -0.38700
N1879       N  0.73756393  0.78119815  0.67652973    -0.38100
N1880       N  0.77034763  0.92250046  0.82109508    -0.38100
C1881       C  0.74659237  0.78333072  0.97951142    -0.04800
C1882       C  0.76591288  0.76038344  0.95853892    -0.01900
C1883       C  0.78008791  0.73399812  0.97648789     0.03100
C1884       C  0.77642323  0.73087217  0.01558319    -0.04800
C1885       C  0.75900034  0.75499856  0.03681113    -0.01900
C1886       C  0.74392282  0.78080941  0.01867197     0.03100
C1887       C  0.77229766  0.76418226  0.91843032     0.37800
C1888       C  0.75481336  0.75304302  0.07745790     0.37700
C1889       C  0.72435181  0.80408065  0.04019527     0.36200
C1890       C  0.79966140  0.71077064  0.95495867     0.36200
N1891       N  0.70871710  0.82262480  0.05728693    -0.38700
N1892       N  0.81535861  0.69224414  0.93790138    -0.38700
N1893       N  0.75147299  0.75184090  0.10983110    -0.38100
N1894       N  0.77744416  0.76711246  0.88648554    -0.38100
C1895       C  0.52342895  0.90532461  0.27817331    -0.04800
C1896       C  0.52606086  0.87938224  0.25349055    -0.01900
C1897       C  0.00108818  0.87678770  0.22375403     0.03100
C1898       C  0.98057443  0.90297245  0.21332108    -0.04800
C1899       C  0.47960973  0.92861519  0.23577913    -0.01900
C1900       C  0.50019880  0.93004189  0.26878261     0.03100
C1901       C  0.04012166  0.84976040  0.26901360     0.37800
C1902       C  0.45688699  0.95465509  0.22634842     0.37700
C1903       C  0.49823134  0.95777473  0.29249167     0.36200
C1904       C  0.00091987  0.84896372  0.20016661     0.36200
N1905       N  0.49655909  0.98012496  0.31096963    -0.38700
N1906       N  0.00070495  0.82677304  0.18131273    -0.38700
N1907       N  0.43883617  0.97548171  0.21893869    -0.38100
N1908       N  0.05465989  0.82744455  0.27859138    -0.38100
C1909       C  0.60033593  0.86744280  0.98084497    -0.04800
C1910       C  0.60521314  0.88744867  0.01231853    -0.01900
C1911       C  0.57978682  0.88947548  0.04107839     0.03100
C1912       C  0.54827295  0.87247415  0.03814131    -0.04800
C1913       C  0.54472058  0.85047892  0.00795907    -0.01900
C1914       C  0.57010529  0.84883580  0.97887527     0.03100
C1915       C  0.63527101  0.90797563  0.01407452     0.37800
C1916       C  0.51515452  0.82935858  0.00611898     0.37700
C1917       C  0.56454043  0.82862650  0.94642109     0.36200
C1918       C  0.58633701  0.90917320  0.07380614     0.36200
N1919       N  0.55972358  0.81267685  0.92047826    -0.38700
N1920       N  0.59161105  0.92483552  0.09989264    -0.38700
N1921       N  0.49201782  0.81201457  0.00452747    -0.38100
N1922       N  0.65856253  0.92508143  0.01609542    -0.38100
C1923       C  0.85130438  0.89161978  0.00902028    -0.04800
C1924       C  0.85923068  0.87536441  0.97484608    -0.01900
C1925       C  0.83322476  0.87053286  0.94717247     0.03100
C1926       C  0.79913549  0.88256206  0.95256476    -0.04800
C1927       C  0.79195918  0.90043066  0.98585779    -0.01900
C1928       C  0.81784201  0.90482176  0.01372490     0.03100
C1929       C  0.89440520  0.86379757  0.96748380     0.37800
C1930       C  0.75776113  0.91419203  0.99246489     0.37700
C1931       C  0.81054568  0.92455788  0.04625692     0.36200
C1932       C  0.84190285  0.85375864  0.91265129     0.36200
N1933       N  0.80450305  0.94069957  0.07178223    -0.38700
N1934       N  0.84885427  0.84042370  0.88509620    -0.38700
N1935       N  0.73077652  0.92568647  0.99800738    -0.38100
N1936       N  0.92252477  0.85509109  0.96094260    -0.38100
C1937       C  0.89147904  0.49755036  0.12767978    -0.04800
C1938       C  0.85462831  0.50173617  0.13037398    -0.01900
C1939       C  0.83909435  0.53084462  0.12164550     0.03100
C1940       C  0.86012834  0.55625841  0.11084007    -0.04800
C1941       C  0.89704311  0.55330823  0.11368127    -0.01900
C1942       C  0.91264737  0.52410084  0.12138843     0.03100
C1943       C  0.83723832  0.97673921  0.14272941     0.37800
C1944       C  0.91960231  0.58036502  0.11063962     0.37700
C1945       C  0.95063859  0.52165825  0.12180560     0.36200
C1946       C  0.80164911  0.53523584  0.12627474     0.36200
N1947       N  0.98090957  0.51988812  0.12209374    -0.38700
N1948       N  0.77186783  0.53876044  0.13088904    -0.38700
N1949       N  0.93916005  0.60095005  0.10955316    -0.38100
N1950       N  0.82064116  0.95682752  0.15550031    -0.38100
C1951       C  0.90182251  0.80538282  0.10703795    -0.04800
C1952       C  0.89685434  0.78336021  0.07754462    -0.01900
C1953       C  0.88103448  0.75424593  0.08473934     0.03100
C1954       C  0.86813541  0.74683887  0.12109026    -0.04800
C1955       C  0.87257995  0.76846693  0.15059817    -0.01900
C1956       C  0.89027659  0.79701751  0.14416738     0.03100
C1957       C  0.90749561  0.79008275  0.03913389     0.37800
C1958       C  0.85973897  0.76088962  0.18798642     0.37700
C1959       C  0.89677619  0.81707404  0.17657617     0.36200
C1960       C  0.87764216  0.73236902  0.05357075     0.36200
N1961       N  0.90205185  0.83280560  0.20261154    -0.38700
N1962       N  0.87583705  0.71642827  0.02720765    -0.38700
N1963       N  0.84936998  0.75488781  0.21775611    -0.38100
N1964       N  0.91529942  0.79462257  0.00812332    -0.38100
C1965       C  0.51984776  0.60359042  0.78613258    -0.04800
C1966       C  0.98566570  0.58660704  0.78139982    -0.01900
C1967       C  0.96559319  0.58864171  0.74802130     0.03100
C1968       C  0.97732870  0.60690149  0.71764543    -0.04800
C1969       C  0.51024057  0.62534575  0.72320817    -0.01900
C1970       C  0.53014292  0.62368864  0.75673705     0.03100
C1971       C  0.97428147  0.56503388  0.81035911     0.37800
C1972       C  0.52133410  0.64617010  0.69334950     0.37700
C1973       C  0.56093872  0.64308516  0.76083663     0.36200
C1974       C  0.93347604  0.57081531  0.74448191     0.36200
N1975       N  0.58542980  0.65878208  0.76353921    -0.38700
N1976       N  0.90768970  0.55682322  0.74184468    -0.38700
N1977       N  0.53010802  0.66269331  0.66945594    -0.38100
N1978       N  0.96514735  0.54777448  0.83332269    -0.38100
C1979       C  0.99267385  0.97500532  0.00587084    -0.04800
C1980       C  0.97467150  0.50846200  0.01449937    -0.01900
C1981       C  0.99729364  0.53370980  0.00715173     0.03100
C1982       C  0.53098602  0.52853880  0.98767314    -0.04800
C1983       C  0.54136875  0.49731602  0.97948500    -0.01900
C1984       C  0.52332629  0.97090543  0.98676035     0.03100
C1985       C  0.93874627  0.51455022  0.02603155     0.37800
C1986       C  0.57647005  0.49085284  0.96554825     0.37700
C1987       C  0.53248766  0.93991568  0.97339925     0.36200
C1988       C  0.98832003  0.56418844  0.02195598     0.36200
N1989       N  0.53924330  0.91551200  0.96114368    -0.38700
N1990       N  0.98128970  0.58783105  0.03599866    -0.38700
N1991       N  0.60463786  0.48554150  0.95511365    -0.38100
N1992       N  0.90974278  0.51926699  0.03390871    -0.38100
C1993       C  0.60974456  0.70362354  0.88930526    -0.04800
C1994       C  0.63249001  0.70771391  0.85765058    -0.01900
C1995       C  0.64950056  0.73658081  0.85146888     0.03100
C1996       C  0.64568054  0.76115941  0.87775359    -0.04800
C1997       C  0.62656417  0.75567581  0.91143046    -0.01900
C1998       C  0.60699284  0.72807644  0.91608871     0.03100
C1999       C  0.64134614  0.68153765  0.83308364     0.37800
C2000       C  0.63065863  0.77641441  0.94362825     0.37700
C2001       C  0.58532572  0.72460547  0.94949997     0.36200
C2002       C  0.67231823  0.74017593  0.81902641     0.36200
N2003       N  0.56825316  0.72213041  0.97633959    -0.38700
N2004       N  0.69091628  0.74226406  0.79332687    -0.38700
N2005       N  0.63444032  0.79181299  0.97021951    -0.38100
N2006       N  0.64908674  0.66066162  0.81382020    -0.38100
C2007       C  0.65278180  0.95318960  0.88484472    -0.04800
C2008       C  0.67322800  0.98021480  0.88846298    -0.01900
C2009       C  0.65896673  0.00979582  0.87950931     0.03100
C2010       C  0.62399973  0.51427485  0.86853064    -0.04800
C2011       C  0.60370938  0.98496410  0.86183947    -0.01900
C2012       C  0.61831092  0.95557022  0.87066477     0.03100
C2013       C  0.70942350  0.97736144  0.90044241     0.37800
C2014       C  0.56823837  0.98600555  0.84729274     0.37700
C2015       C  0.59723295  0.92759884  0.86591404     0.36200
C2016       C  0.68071408  0.53853408  0.88972211     0.36200
N2017       N  0.58028422  0.90545087  0.86192828    -0.38700
N2018       N  0.69855826  0.55997251  0.89478104    -0.38700
N2019       N  0.53994272  0.98657927  0.83571090    -0.38100
N2020       N  0.73831168  0.97495265  0.90979248    -0.38100
C2021       C  0.71449780  0.63121584  0.03662869    -0.04800
C2022       C  0.69917985  0.65566840  0.01554975    -0.01900
C2023       C  0.68215997  0.64921540  0.98122703     0.03100
C2024       C  0.67223526  0.61850271  0.97184827    -0.04800
C2025       C  0.68418318  0.59387261  0.99484217    -0.01900
C2026       C  0.70695121  0.59996935  0.02545813     0.03100
C2027       C  0.69819534  0.68744626  0.02984293     0.37800
C2028       C  0.67324527  0.56207124  0.98678689     0.37700
C2029       C  0.72160423  0.57379273  0.04571561     0.36200
C2030       C  0.67677789  0.67439875  0.95501780     0.36200
N2031       N  0.73326833  0.55246268  0.06110541    -0.38700
N2032       N  0.67516648  0.69504607  0.93432941    -0.38700
N2033       N  0.66440247  0.53670033  0.98067760    -0.38100
N2034       N  0.69544468  0.71267853  0.04139642    -0.38100
C2035       C  0.91515632  0.63965241  0.02045630    -0.04800
C2036       C  0.90861012  0.62190901  0.98730387    -0.01900
C2037       C  0.93466672  0.61842489  0.95936074     0.03100
C2038       C  0.96828457  0.63112324  0.96505171    -0.04800
C2039       C  0.97472376  0.64905681  0.99842698    -0.01900
C2040       C  0.94796601  0.65373672  0.02551572     0.03100
C2041       C  0.87523630  0.60618060  0.98234430     0.37800
C2042       C  0.50816092  0.65673508  0.00782756     0.37700
C2043       C  0.95435328  0.67268404  0.05888060     0.36200
C2044       C  0.92663024  0.60184955  0.92463285     0.36200
N2045       N  0.95943891  0.68779170  0.08548064    -0.38700
N2046       N  0.92004556  0.58876167  0.89690772    -0.38700
N2047       N  0.53612972  0.66397598  0.01673271    -0.38100
N2048       N  0.84869223  0.59359102  0.97844328    -0.38100
loop_ 
_geom_bond_atom_site_label_1 
_geom_bond_atom_site_label_2 
_geom_bond_distance 
_geom_bond_site_symmetry_2 
_ccdc_geom_bond_type 
O1          Cr19   2.021       .  S
O1            C9   1.272       .  A
O2          Cr19   1.942       .  S
O2            C3   1.247       .  A
C3            O4   1.275       .  A
C3          C446   1.491       .  S
O4          Cr20   2.064       .  S
O5          Cr20   1.949       .  S
O5            C6   1.253       .  A
C6            O7   1.281       .  A
C6          C488   1.491       .  S
O7          Cr21   2.072       .  S
O8          Cr21   1.951       .  S
O8            C9   1.253       .  A
C9          C474   1.509       .  S
O10         Cr19   1.956       .  S
O10          C18   1.256       .  A
O11       Cr1043   2.045       .  S
O11          C12   1.275       .  A
C12        O1037   1.253       .  A
C12         C502   1.496       .  S
O13         Cr20   1.952       .  S
O13        C1036   1.253       .  A
O14         Cr20   2.048       .  S
O14          C15   1.277       .  A
C15          O16   1.254       .  A
C15         C457   1.496       .  S
O16         Cr21   1.954       .  S
O17         Cr21   2.067       .  S
O17          C18   1.281       .  A
C18         C429   1.508       .  S
Cr19       O1035   2.044       .  S
Cr19         O22   1.745       .  S
Cr20         O22   1.752       .  S
Cr21         O22   1.756       .  S
O23         Cr41   1.956       .  S
O23          C31   1.255       .  A
O24         Cr41   2.058       .  S
O24          C25   1.277       .  A
C25          O26   1.248       .  A
C25         C387   1.489       .  S
O26         Cr42   1.938       .  S
O27         Cr42   2.062       .  S
O27          C28   1.277       .  A
C28          O29   1.251       .  A
C28         C443   1.490       .  S
O29         Cr43   1.940       .  S
O30         Cr43   2.028       .  S
O30          C31   1.272       .  A
C31         C913   1.499       .  S
O32         Cr41   2.057       .  S
O32          C40   1.280       .  A
O33         Cr41   1.949       .  S
O33          C34   1.253       .  A
C34          O35   1.278       .  A
C34         C415   1.513       .  S
O35         Cr42   2.050       .  S
O36         Cr42   1.953       .  S
O36        C1061   1.250       .  A
C37          O38   1.270       .  A
C37        O1060   1.250   1_455  A
C37         C376   1.501       .  S
O38       Cr1067   2.031   1_455  S
O39         Cr43   1.950       .  S
O39          C40   1.253       .  A
C40         C362   1.485       .  S
Cr41         O44   1.752       .  S
Cr42         O44   1.746       .  S
Cr43       O1062   2.032       .  S
Cr43         O44   1.745       .  S
O45         Cr63   1.963       .  S
O45          C53   1.253       .  A
O46         Cr63   2.046       .  S
O46          C47   1.275       .  A
C47          O48   1.253       .  A
C47         C373   1.476       .  S
O48         Cr64   1.937       .  S
O49         Cr64   2.080       .  S
O49          C50   1.280       .  A
C50          O51   1.240       .  A
C50         C345   1.488       .  S
O51         Cr65   1.927       .  S
O52         Cr65   2.017       .  S
O52          C53   1.268       .  A
C53         C460   1.489       .  S
O54         Cr63   2.051       .  S
O54          C62   1.282       .  A
O55         Cr63   1.946       .  S
O55          C56   1.253       .  A
C56          O57   1.276       .  A
C56         C471   1.486       .  S
O57         Cr64   2.049       .  S
O58         Cr64   1.951       .  S
O58          C59   1.249       .  A
C59          O60   1.271       .  A
C59         C390   1.487       .  S
O60         Cr65   2.046       .  S
O61         Cr65   1.935       .  S
O61          C62   1.254       .  A
C62         C331   1.490       .  S
Cr63         O66   1.752       .  S
Cr64         O66   1.751       .  S
Cr65         O66   1.753       .  S
O67         Cr85   2.027       .  S
O67          C75   1.270       .  A
O68         Cr85   1.917       .  S
O68          C69   1.235       .  A
C69          O70   1.282       .  A
C69         C348   1.491       .  S
O70         Cr86   2.089       .  S
O71         Cr86   1.932       .  S
O71          C72   1.248       .  A
C72          O73   1.275       .  A
C72         C499   1.484       .  S
O73         Cr87   2.045       .  S
O74         Cr87   1.959       .  S
O74          C75   1.249       .  A
C75         C418   1.488       .  S
O76         Cr85   1.932       .  S
O76          C84   1.252       .  A
O77         Cr85   2.052       .  S
O77          C78   1.274       .  A
C78          O79   1.254       .  A
C78         C485   1.509       .  S
O79         Cr86   1.958       .  S
O80         Cr86   2.069       .  S
O80          C81   1.283       .  A
C81          O82   1.256       .  A
C81         C404   1.492       .  S
O82         Cr87   1.952       .  S
O83         Cr87   2.075       .  S
O83          C84   1.286       .  A
C84         C317   1.501       .  S
Cr85         O88   1.741       .  S
Cr86         O88   1.756       .  S
Cr87         O88   1.756       .  S
O89        Cr107   2.030       .  S
O89          C97   1.274       .  A
O90        Cr107   1.925       .  S
O90          C91   1.243       .  A
C91          O92   1.278       .  A
C91         C275   1.475       .  S
O92        Cr108   2.068       .  S
O93        Cr108   1.944       .  S
O93          C94   1.253       .  A
C94          O95   1.277       .  A
C94         C292   1.494       .  S
O95        Cr109   2.051       .  S
O96        Cr109   1.967       .  S
O96          C97   1.256       .  A
C97         C250   1.507       .  S
O98        Cr107   1.947       .  S
O98         C106   1.256       .  A
O99       Cr1131   2.058   1_455  S
O99         C100   1.274       .  A
C100        O101   1.251   1_455  A
C100        C306   1.511       .  S
O101      Cr1132   1.957       .  S
O102       Cr108   2.049       .  S
O102        C103   1.277       .  A
C103        O104   1.256       .  A
C103        C261   1.518       .  S
O104       Cr109   1.956       .  S
O105       Cr109   2.056       .  S
O105        C106   1.280       .  A
C106        C432   1.493       .  S
Cr107      O1123   2.061       .  S
Cr107       O110   1.755       .  S
Cr108      O1125   1.956       .  S
Cr108       O110   1.750       .  S
Cr109       O110   1.756       .  S
O111       Cr129   1.973       .  S
O111        C119   1.256       .  A
O112       Cr129   2.059       .  S
O112        C113   1.278       .  A
C113        O114   1.254       .  A
C113        C205   1.485       .  S
O114       Cr130   1.939       .  S
O115       Cr130   2.079       .  S
O115        C116   1.279       .  A
C116        O117   1.242       .  A
C116        C278   1.484       .  S
O117       Cr131   1.933       .  S
O118       Cr131   2.015       .  S
O118        C119   1.268       .  A
C119        C731   1.494       .  S
O120       Cr129   2.067       .  S
O120        C128   1.283       .  A
O121       Cr129   1.958       .  S
O121        C122   1.256       .  A
C122        O123   1.277       .  A
C122        C233   1.503       .  S
O123       Cr130   2.048       .  S
O124       Cr130   1.954       .  S
O124       C1149   1.251   1_455  A
C125        O126   1.273       .  A
C125       O1148   1.251       .  A
C125        C194   1.507       .  S
O126      Cr1155   2.050       .  S
O127       Cr131   1.948       .  S
O127        C128   1.255       .  A
C128        C359   1.494       .  S
Cr129       O132   1.755       .  S
Cr130       O132   1.757       .  S
Cr131      O1150   2.044   1_455  S
Cr131       O132   1.753       .  S
O133       Cr151   1.969       .  S
O133        C141   1.254       .  A
O134       Cr151   2.063       .  S
O134        C135   1.279       .  A
C135        O136   1.252       .  A
C135        C191   1.482       .  S
O136       Cr152   1.935       .  S
O137       Cr152   2.087       .  S
O137        C138   1.282       .  A
C138        O139   1.241       .  A
C138        C177   1.489       .  S
O139       Cr153   1.926       .  S
O140       Cr153   2.025       .  S
O140        C141   1.269       .  A
C141        C264   1.489       .  S
O142       Cr151   2.076       .  S
O142        C150   1.285       .  A
O143       Cr151   1.954       .  S
O143        C144   1.254       .  A
C144        O145   1.279       .  A
C144        C247   1.502       .  S
O145       Cr152   2.056       .  S
O146       Cr152   1.956       .  S
O146        C147   1.251       .  A
C147        O148   1.271       .  A
C147        C208   1.496       .  S
O148       Cr153   2.043       .  S
O149       Cr153   1.930       .  S
O149        C150   1.250       .  A
C150        C334   1.503       .  S
Cr151       O154   1.755       .  S
Cr152       O154   1.751       .  S
Cr153       O154   1.745       .  S
O155       Cr173   2.023       .  S
O155        C163   1.271       .  A
O156       Cr173   1.930       .  S
O156        C157   1.241       .  A
C157        O158   1.280       .  A
C157        C180   1.487       .  S
O158       Cr174   2.081       .  S
O159       Cr174   1.947       .  S
O159        C160   1.255       .  A
C160        O161   1.278       .  A
C160        C303   1.491       .  S
O161       Cr175   2.060       .  S
O162       Cr175   1.969       .  S
O162        C163   1.257       .  A
C163        C236   1.497       .  S
O164       Cr173   1.947       .  S
O164        C172   1.254       .  A
O165       Cr173   2.050       .  S
O165        C166   1.272       .  A
C166        O167   1.252       .  A
C166        C289   1.491       .  S
O167       Cr174   1.954       .  S
O168       Cr174   2.059       .  S
O168        C169   1.279       .  A
C169        O170   1.254       .  A
C169        C222   1.505       .  S
O170       Cr175   1.955       .  S
O171       Cr175   2.056       .  S
O171        C172   1.281       .  A
C172        C320   1.496       .  S
Cr173       O176   1.756       .  S
Cr174       O176   1.756       .  S
Cr175       O176   1.753       .  S
C177        C178   1.401       .  A
C177        C182   1.431       .  A
C178        C179   1.412       .  A
C178        C183   1.452       .  S
C179        C180   1.430       .  A
C179        C186   1.452       .  S
C180        C181   1.399       .  A
C181        C182   1.409       .  A
C181        C184   1.452       .  S
C182        C185   1.450       .  S
C183        N190   1.157       .  T
C184        N189   1.157       .  T
C185        N187   1.156       .  T
C186        N188   1.158       .  T
C191        C192   1.416       .  A
C191        C196   1.402       .  A
C192        C193   1.413       .  A
C192        C197   1.450       .  S
C193        C194   1.415       .  A
C193        C200   1.452       .  S
C194        C195   1.428       .  A
C195        C196   1.411       .  A
C195       C1222   1.448       .  S
C196        C199   1.451       .  S
C197        N204   1.156       .  T
C198       C1219   1.446   1_455  S
C198        N203   1.155       .  T
C199        N201   1.157       .  T
C200        N202   1.157       .  T
C205        C206   1.416       .  A
C205        C210   1.403       .  A
C206        C207   1.409       .  A
C206        C211   1.447       .  S
C207        C208   1.410       .  A
C207        C214   1.453       .  S
C208        C209   1.429       .  A
C209        C210   1.414       .  A
C209        C212   1.450       .  S
C210        C213   1.451       .  S
C211        N218   1.156       .  T
C212        N217   1.157       .  T
C213        N215   1.157       .  T
C214        N216   1.157       .  T
C219        C631   1.504       .  S
C219        C220   1.423       .  A
C219        C224   1.410   1_565  A
C220        C221   1.416   1_565  A
C220        C737   1.448       .  S
C221        C222   1.410       .  A
C221        C228   1.452       .  S
C222        C223   1.427       .  A
C223        C224   1.415       .  A
C223        C226   1.453       .  S
C224        C227   1.451       .  S
C225        C732   1.449       .  S
C225        N232   1.156       .  T
C226        N231   1.158       .  T
C227        N741   1.157       .  T
C228        N230   1.157       .  T
N229        C739   1.157       .  T
C233        C234   1.411       .  A
C233        C238   1.428       .  A
C234        C235   1.411       .  A
C234        C239   1.452       .  S
C235        C236   1.420       .  A
C235        C242   1.449       .  S
C236        C237   1.410       .  A
C237        C238   1.416       .  A
C237        C240   1.451       .  S
C238        C241   1.452       .  S
C239        N246   1.157       .  T
C240        N245   1.157       .  T
C241        N243   1.158       .  T
C242        N244   1.156       .  T
C247        C248   1.426       .  A
C247        C252   1.407       .  A
C248        C249   1.417       .  A
C248        C253   1.452       .  S
C249        C762   1.412       .  A
C249        C256   1.451       .  S
C250        C761   1.413   1_545  A
C250        C763   1.426       .  A
C251        C252   1.412       .  A
C251        C762   1.425       .  A
C251        C766   1.449       .  S
C252        C255   1.452       .  S
C253        N260   1.158       .  T
C254        C763   1.448       .  S
C254        N259   1.156       .  T
C255        N257   1.157       .  T
C256        N258   1.157       .  T
C261        C262   1.434       .  A
C261        C266   1.422       .  A
C262        C263   1.417       .  A
C262        C267   1.452       .  S
C263        C264   1.404       .  A
C263        C270   1.452       .  S
C264        C265   1.414       .  A
C265        C266   1.413       .  A
C265        C268   1.453       .  S
C266        C269   1.450       .  S
C267        N274   1.158       .  T
C268        N273   1.157       .  T
C269        N271   1.157       .  T
C270        N272   1.158       .  T
C275        C280   1.426       .  A
C275       C1300   1.399       .  A
C276        C277   1.406   1_545  A
C276       C1299   1.400       .  A
C276        C281   1.452       .  S
C277        C790   1.425   1_655  A
C277        C284   1.450       .  S
C278        C279   1.401       .  A
C278        C789   1.428       .  A
C279       C1816   1.411       .  A
C279       C1306   1.451       .  S
C280       C1815   1.408   1_545  A
C280        C283   1.452       .  S
C281        N288   1.157       .  T
C282       C1303   1.452       .  S
C282        N287   1.157       .  T
C283        N797   1.158       .  T
C284        N286   1.157       .  T
N285        C795   1.158       .  T
C289        C290   1.406       .  A
C289        C294   1.423       .  A
C290        C291   1.413       .  A
C290        C295   1.451       .  S
C291        C292   1.425       .  A
C291        C298   1.451       .  S
C292        C293   1.408       .  A
C293        C294   1.411       .  A
C293        C296   1.452       .  S
C294        C297   1.450       .  S
C295        N302   1.157       .  T
C296        N301   1.158       .  T
C297        N299   1.156       .  T
C298        N300   1.157       .  T
C303        C304   1.401       .  A
C303        C308   1.417       .  A
C304        C305   1.415       .  A
C304        C309   1.452       .  S
C305        C306   1.432       .  A
C305        C312   1.448       .  S
C306        C307   1.415       .  A
C307        C308   1.416       .  A
C307        C310   1.451       .  S
C308        C311   1.449       .  S
C309        N316   1.157       .  T
C310        N315   1.157       .  T
C311        N313   1.156       .  T
C312        N314   1.156   1_455  T
C317        C318   1.426       .  A
C317        C322   1.411       .  A
C318        C319   1.411       .  A
C318        C323   1.454       .  S
C319        C320   1.409       .  A
C319        C326   1.452       .  S
C320        C321   1.422       .  A
C321        C322   1.418       .  A
C321        C324   1.451       .  S
C322        C325   1.450       .  S
C323        N330   1.157       .  T
C324        N329   1.157       .  T
C325        N327   1.157       .  T
C326        N328   1.157       .  T
C331        C332   1.422       .  A
C331        C336   1.405       .  A
C332        C333   1.416       .  A
C332        C337   1.452       .  S
C333        C334   1.412       .  A
C333        C340   1.450       .  S
C334        C335   1.430       .  A
C335        C336   1.409       .  A
C335        C338   1.451       .  S
C336        C339   1.454       .  S
C337        N344   1.158       .  T
C338        N343   1.157       .  T
C339        N341   1.157       .  T
C340        N342   1.157       .  T
C345        C346   1.432       .  A
C345        C350   1.400   1_556  A
C346        C347   1.410       .  A
C346        C351   1.454       .  S
C347        C348   1.401   1_556  A
C347        C354   1.452       .  S
C348        C349   1.436       .  A
C349        C350   1.408       .  A
C349        C352   1.454       .  S
C350        C353   1.453       .  S
C351        N358   1.157       .  T
C352        N357   1.157       .  T
C353        N355   1.157       .  T
C354        N356   1.157       .  T
C359        C360   1.412       .  A
C359        C364   1.417       .  A
C360       C1385   1.420       .  A
C360       C1389   1.449       .  S
C361        C362   1.415       .  A
C361       C1384   1.418       .  A
C361        C368   1.450       .  S
C362       C1387   1.409       .  A
C363        C364   1.412   1_655  A
C363       C1386   1.410       .  A
C363        C366   1.452       .  S
C364        C367   1.451       .  S
C365       C1384   1.449       .  S
C365        N372   1.157       .  T
C366        N371   1.157       .  T
C367        N369   1.157       .  T
C368        N370   1.157       .  T
C373        C374   1.413   1_556  A
C373        C378   1.402       .  A
C374        C375   1.409       .  A
C374        C379   1.452       .  S
C375        C376   1.417       .  A
C375        C382   1.452       .  S
C376        C377   1.430       .  A
C377        C378   1.411   1_554  A
C377        C380   1.450       .  S
C378        C381   1.452       .  S
C379        N386   1.157       .  T
C380        N385   1.157   1_455  T
C381        N383   1.157       .  T
C382        N384   1.158       .  T
C387        C388   1.426   1_554  A
C387        C392   1.405       .  A
C388        C389   1.411       .  A
C388        C393   1.452       .  S
C389        C390   1.405       .  A
C389        C396   1.452       .  S
C390        C391   1.424       .  A
C391        C392   1.409   1_556  A
C391        C394   1.451   1_556  S
C392        C395   1.450       .  S
C393        N400   1.157       .  T
C394        N399   1.156       .  T
C395        N397   1.157       .  T
C396        N398   1.158       .  T
C401        C543   1.500       .  S
C401        C402   1.421   1_565  A
C401        C406   1.413   1_565  A
C402        C403   1.416       .  A
C402        C919   1.451   1_545  S
C403        C404   1.409       .  A
C403        C410   1.450       .  S
C404        C405   1.420       .  A
C405        C406   1.413       .  A
C405        C408   1.448       .  S
C406        C409   1.453       .  S
C407        C914   1.451       .  S
C407        N414   1.157       .  T
C408        N413   1.157       .  T
C409        N411   1.158       .  T
C410        N412   1.157       .  T
C415        C416   1.419       .  A
C415        C420   1.435       .  A
C416        C417   1.411       .  A
C416        C421   1.452       .  S
C417        C418   1.417       .  A
C417        C424   1.451       .  S
C418        C419   1.403       .  A
C419        C420   1.416       .  A
C419        C422   1.452       .  S
C420        C423   1.452       .  S
C421        N428   1.157       .  T
C422        N427   1.157       .  T
C423        N425   1.158       .  T
C424        N426   1.156       .  T
C429        C434   1.413       .  A
C429       C1454   1.425   1_455  A
C430        C431   1.414       .  A
C430       C1453   1.426       .  A
C430        C435   1.453       .  S
C431        C432   1.408       .  A
C431        C438   1.451       .  S
C432       C1457   1.418       .  A
C433        C434   1.419       .  A
C433       C1456   1.418   1_455  A
C433        C436   1.451       .  S
C434        C437   1.448       .  S
C435        N442   1.157       .  T
C436        N441   1.157       .  T
C437        N439   1.157       .  T
C438        N440   1.157       .  T
C443        C956   1.413       .  A
C443       C1472   1.407   1_554  A
C444        C445   1.409       .  A
C444        C955   1.415   1_545  A
C444        C449   1.451       .  S
C445       C1470   1.408   1_554  A
C445        C452   1.443       .  S
C446        C447   1.418   1_545  A
C446       C1469   1.408   1_556  A
C447        C960   1.413       .  A
C447        C450   1.450       .  S
C448       C1467   1.407   1_456  A
C448        C959   1.412       .  A
C448        C451   1.446       .  S
C449        N456   1.157       .  T
C450        N455   1.156       .  T
C451        N453   1.156       .  T
C452        N454   1.155       .  T
C457        C458   1.427       .  A
C457        C462   1.411       .  A
C458        C459   1.413       .  A
C458        C463   1.452       .  S
C459        C460   1.406       .  A
C459        C466   1.451       .  S
C460        C461   1.418       .  A
C461        C462   1.409       .  A
C461        C464   1.451       .  S
C462        C465   1.450       .  S
C463        N470   1.157       .  T
C464        N469   1.157       .  T
C465        N467   1.157       .  T
C466        N468   1.157       .  T
C471        C472   1.402       .  A
C471        C476   1.417       .  A
C472        C473   1.415       .  A
C472        C477   1.453       .  S
C473        C986   1.435       .  A
C473        C992   1.452       .  S
C474        C985   1.433       .  A
C474        C987   1.419   1_545  A
C475        C476   1.412       .  A
C475        C986   1.417       .  A
C475        C478   1.452       .  S
C476        C479   1.453       .  S
C477        N484   1.157       .  T
C478        N483   1.158       .  T
C479        N481   1.157       .  T
C480        C985   1.452       .  S
C480        N482   1.158       .  T
C485        C486   1.418       .  A
C485        C490   1.422       .  A
C486        C487   1.411   1_554  A
C486        C491   1.448       .  S
C487        C488   1.407       .  A
C487        C494   1.446       .  S
C488        C489   1.414       .  A
C489        C490   1.418   1_556  A
C489        C492   1.451       .  S
C490        C493   1.450       .  S
C491        N498   1.156       .  T
C492        N497   1.157       .  T
C493        N495   1.157       .  T
C494        N496   1.156       .  T
C499        C500   1.419   1_554  A
C499        C504   1.404       .  A
C500        C501   1.410       .  A
C500        C505   1.453       .  S
C501        C502   1.412       .  A
C501        C508   1.452       .  S
C502        C503   1.428       .  A
C503        C504   1.412   1_556  A
C503       C1530   1.452   1_556  S
C504        C507   1.452       .  S
C505        N512   1.157       .  T
C506       C1527   1.452   1_455  S
C506        N511   1.157       .  T
C507        N509   1.157       .  T
C508        N510   1.157       .  T
O513       Cr531   2.026       .  S
O513        C521   1.274       .  A
O514       Cr531   1.939       .  S
O514        C515   1.246       .  A
C515        O516   1.277       .  A
C515        C958   1.499       .  S
O516       Cr532   2.076       .  S
O517       Cr532   1.942       .  S
O517        C518   1.253       .  A
C518        O519   1.281       .  A
C518       C1000   1.489       .  S
O519       Cr533   2.066       .  S
O520       Cr533   1.949       .  S
O520        C521   1.251       .  A
C521        C986   1.512       .  S
O522       Cr531   1.949       .  S
O522        C530   1.253       .  A
O523      Cr1555   2.044       .  S
O523        C524   1.274       .  A
C524       O1549   1.254       .  A
C524       C1014   1.493       .  S
O525       Cr532   1.952       .  S
O525       C1548   1.252   1_455  A
O526       Cr532   2.054       .  S
O526        C527   1.278       .  A
C527        O528   1.256       .  A
C527        C969   1.505       .  S
O528       Cr533   1.961       .  S
O529       Cr533   2.070       .  S
O529        C530   1.282       .  A
C530        C941   1.511       .  S
Cr531      O1547   2.045       .  S
Cr531       O534   1.744       .  S
Cr532       O534   1.751       .  S
Cr533       O534   1.759       .  S
O535       Cr553   1.958       .  S
O535        C543   1.255       .  A
O536       Cr553   2.068       .  S
O536        C537   1.280       .  A
C537        O538   1.248       .  A
C537        C899   1.491       .  S
O538       Cr554   1.937       .  S
O539       Cr554   2.067       .  S
O539        C540   1.278       .  A
C540        O541   1.251       .  A
C540        C955   1.493       .  S
O541       Cr555   1.940       .  S
O542       Cr555   2.033       .  S
O542        C543   1.273       .  A
O544       Cr553   2.067       .  S
O544        C552   1.282       .  A
O545       Cr553   1.949       .  S
O545        C546   1.252       .  A
C546        O547   1.280       .  A
C546        C927   1.517       .  S
O547       Cr554   2.060       .  S
O548       Cr554   1.955       .  S
O548       C1573   1.251       .  A
C549       O1572   1.249   1_455  A
C549        O550   1.272       .  A
C549        C888   1.492       .  S
O550      Cr1579   2.035   1_455  S
O551       Cr555   1.954       .  S
O551        C552   1.254       .  A
C552        C874   1.495       .  S
Cr553       O556   1.752       .  S
Cr554       O556   1.751       .  S
Cr555      O1574   2.034       .  S
Cr555       O556   1.745       .  S
O557       Cr575   1.956       .  S
O557        C565   1.253       .  A
O558       Cr575   2.050       .  S
O558        C559   1.277       .  A
C559        O560   1.250       .  A
C559        C885   1.481       .  S
O560       Cr576   1.933       .  S
O561       Cr576   2.066       .  S
O561        C562   1.278       .  A
C562        O563   1.242       .  A
C562        C857   1.472       .  S
O563       Cr577   1.920       .  S
O564       Cr577   2.031       .  S
O564        C565   1.272       .  A
C565        C972   1.495       .  S
O566       Cr575   2.050       .  S
O566        C574   1.281       .  A
O567       Cr575   1.943       .  S
O567        C568   1.251       .  A
C568        O569   1.275       .  A
C568        C983   1.481       .  S
O569       Cr576   2.047       .  S
O570       Cr576   1.953       .  S
O570        C571   1.249       .  A
C571        O572   1.273       .  A
C571        C902   1.500       .  S
O572       Cr577   2.053       .  S
O573       Cr577   1.935       .  S
O573        C574   1.253       .  A
C574        C843   1.489       .  S
Cr575       O578   1.751       .  S
Cr576       O578   1.753       .  S
Cr577       O578   1.751       .  S
O579       Cr597   2.028       .  S
O579        C587   1.270       .  A
O580       Cr597   1.915       .  S
O580        C581   1.236       .  A
C581        O582   1.281       .  A
C581        C860   1.480       .  S
O582       Cr598   2.081       .  S
O583       Cr598   1.929       .  S
O583        C584   1.248       .  A
C584        O585   1.276       .  A
C584       C1011   1.486       .  S
O585       Cr599   2.047       .  S
O586       Cr599   1.962       .  S
O586        C587   1.249       .  A
C587        C930   1.495       .  S
O588       Cr597   1.932       .  S
O588        C596   1.252       .  A
O589       Cr597   2.048       .  S
O589        C590   1.273       .  A
C590        O591   1.256       .  A
C590        C997   1.499       .  S
O591       Cr598   1.964       .  S
O592       Cr598   2.066       .  S
O592        C593   1.281       .  A
C593        O594   1.255       .  A
C593        C916   1.490       .  S
O594       Cr599   1.950       .  S
O595       Cr599   2.083       .  S
O595        C596   1.288       .  A
C596        C829   1.508       .  S
Cr597       O600   1.742       .  S
Cr598       O600   1.757       .  S
Cr599       O600   1.754       .  S
O601       Cr619   2.027       .  S
O601        C609   1.273       .  A
O602       Cr619   1.928       .  S
O602        C603   1.244       .  A
C603        O604   1.277       .  A
C603        C787   1.476       .  S
O604       Cr620   2.068       .  S
O605       Cr620   1.942       .  S
O605        C606   1.252       .  A
C606        O607   1.279       .  A
C606        C804   1.498       .  S
O607       Cr621   2.055       .  S
O608       Cr621   1.965       .  S
O608        C609   1.256       .  A
C609        C762   1.505       .  S
O610       Cr619   1.943       .  S
O610        C618   1.255       .  A
O611      Cr1643   2.058   1_455  S
O611        C612   1.275       .  A
C612        O613   1.248   1_455  A
C612        C818   1.503       .  S
O613      Cr1644   1.951       .  S
O614       Cr620   2.038       .  S
O614        C615   1.275       .  A
C615        O616   1.255       .  A
C615        C773   1.513       .  S
O616       Cr621   1.957       .  S
O617       Cr621   2.061       .  S
O617        C618   1.282       .  A
C618        C944   1.496       .  S
Cr619      O1635   2.056       .  S
Cr619       O622   1.755       .  S
Cr620      O1637   1.952       .  S
Cr620       O622   1.749       .  S
Cr621       O622   1.755       .  S
O623       Cr641   1.977       .  S
O623        C631   1.256       .  A
O624       Cr641   2.055       .  S
O624        C625   1.279       .  A
C625        O626   1.254       .  A
C625        C717   1.489       .  S
O626       Cr642   1.939       .  S
O627       Cr642   2.066       .  S
O627        C628   1.275       .  A
C628        O629   1.241       .  A
C628        C790   1.479       .  S
O629       Cr643   1.933       .  S
O630       Cr643   2.022       .  S
O630        C631   1.270       .  A
O632       Cr641   2.071       .  S
O632        C640   1.284       .  A
O633       Cr641   1.966       .  S
O633        C634   1.258       .  A
C634        O635   1.275       .  A
C634        C745   1.513       .  S
O635       Cr642   2.042       .  S
O636       Cr642   1.954       .  S
O636       C1661   1.253   1_455  A
C637       O1660   1.254       .  A
C637        O638   1.274       .  A
C637        C706   1.504       .  S
O638      Cr1667   2.049       .  S
O639       Cr643   1.942       .  S
O639        C640   1.254       .  A
C640        C871   1.496       .  S
Cr641       O644   1.755       .  S
Cr642       O644   1.756       .  S
Cr643      O1662   2.051   1_455  S
Cr643       O644   1.750       .  S
O645       Cr663   1.964       .  S
O645        C653   1.252       .  A
O646       Cr663   2.061       .  S
O646        C647   1.279       .  A
C647        O648   1.251       .  A
C647        C703   1.480       .  S
O648       Cr664   1.932       .  S
O649       Cr664   2.084       .  S
O649        C650   1.279       .  A
C650        O651   1.239       .  A
C650        C689   1.488       .  S
O651       Cr665   1.927       .  S
O652       Cr665   2.027       .  S
O652        C653   1.270       .  A
C653        C776   1.487       .  S
O654       Cr663   2.070       .  S
O654        C662   1.285       .  A
O655       Cr663   1.952       .  S
O655        C656   1.254       .  A
C656        O657   1.279       .  A
C656        C759   1.501       .  S
O657       Cr664   2.058       .  S
O658       Cr664   1.952       .  S
O658        C659   1.253       .  A
C659        O660   1.273       .  A
C659        C720   1.489       .  S
O660       Cr665   2.049       .  S
O661       Cr665   1.933       .  S
O661        C662   1.251       .  A
C662        C846   1.502       .  S
Cr663       O666   1.756       .  S
Cr664       O666   1.754       .  S
Cr665       O666   1.745       .  S
O667       Cr685   2.024       .  S
O667        C675   1.270       .  A
O668       Cr685   1.931       .  S
O668        C669   1.240       .  A
C669        O670   1.278       .  A
C669        C692   1.485       .  S
O670       Cr686   2.076       .  S
O671       Cr686   1.940       .  S
O671        C672   1.253       .  A
C672        O673   1.278       .  A
C672        C815   1.488       .  S
O673       Cr687   2.060       .  S
O674       Cr687   1.969       .  S
O674        C675   1.257       .  A
C675        C748   1.496       .  S
O676       Cr685   1.953       .  S
O676        C684   1.256       .  A
O677       Cr685   2.049       .  S
O677        C678   1.273       .  A
C678        O679   1.253       .  A
C678        C801   1.491       .  S
O679       Cr686   1.954       .  S
O680       Cr686   2.059       .  S
O680        C681   1.280       .  A
C681        O682   1.252       .  A
C681        C734   1.504       .  S
O682       Cr687   1.949       .  S
O683       Cr687   2.053       .  S
O683        C684   1.281       .  A
C684        C832   1.499       .  S
Cr685       O688   1.752       .  S
Cr686       O688   1.758       .  S
Cr687       O688   1.751       .  S
C689        C690   1.401       .  A
C689        C694   1.430       .  A
C690        C691   1.411       .  A
C690        C695   1.451       .  S
C691        C692   1.430       .  A
C691        C698   1.453       .  S
C692        C693   1.399       .  A
C693        C694   1.408       .  A
C693        C696   1.453       .  S
C694        C697   1.450       .  S
C695        N702   1.157       .  T
C696        N701   1.157       .  T
C697        N699   1.156       .  T
C698        N700   1.158       .  T
C703        C704   1.416       .  A
C703        C708   1.399       .  A
C704        C705   1.412       .  A
C704        C709   1.450       .  S
C705        C706   1.413       .  A
C705        C712   1.451       .  S
C706        C707   1.430       .  A
C707        C708   1.412       .  A
C707       C1734   1.443       .  S
C708        C711   1.453       .  S
C709        N716   1.157       .  T
C710       C1731   1.449       .  S
C710        N715   1.156   1_655  T
C711        N713   1.157       .  T
C712        N714   1.157       .  T
C717        C718   1.423       .  A
C717        C722   1.406       .  A
C718        C719   1.411       .  A
C718        C723   1.452       .  S
C719        C720   1.406       .  A
C719        C726   1.451       .  S
C720        C721   1.424       .  A
C721        C722   1.411       .  A
C721        C724   1.451       .  S
C722        C725   1.452       .  S
C723        N730   1.157       .  T
C724        N729   1.157       .  T
C725        N727   1.157       .  T
C726        N728   1.157       .  T
C731        C732   1.420       .  A
C731        C736   1.407       .  A
C732        C733   1.413       .  A
C733        C734   1.411       .  A
C733        C740   1.451       .  S
C734        C735   1.430       .  A
C735        C736   1.413       .  A
C735        C738   1.453       .  S
C736        C739   1.452       .  S
C737        N744   1.156       .  T
C738        N743   1.158       .  T
C740        N742   1.157       .  T
C745        C746   1.419       .  A
C745        C750   1.431       .  A
C746        C747   1.413       .  A
C746        C751   1.452       .  S
C747        C748   1.417       .  A
C747        C754   1.452       .  S
C748        C749   1.408       .  A
C749        C750   1.418       .  A
C749        C752   1.451       .  S
C750        C753   1.452       .  S
C751        N758   1.157       .  T
C752        N757   1.157       .  T
C753        N755   1.158       .  T
C754        N756   1.157       .  T
C759        C760   1.426       .  A
C759        C764   1.406       .  A
C760        C761   1.418       .  A
C760        C765   1.452       .  S
C761        C768   1.451       .  S
C763        C764   1.413   1_545  A
C764        C767   1.452       .  S
C765        N772   1.158       .  T
C766        N771   1.156       .  T
C767        N769   1.157       .  T
C768        N770   1.157       .  T
C773        C774   1.432       .  A
C773        C778   1.421       .  A
C774        C775   1.417       .  A
C774        C779   1.452       .  S
C775        C776   1.405       .  A
C775        C782   1.451       .  S
C776        C777   1.414       .  A
C777        C778   1.410       .  A
C777        C780   1.452       .  S
C778        C781   1.452       .  S
C779        N786   1.158       .  T
C780        N785   1.157       .  T
C781        N783   1.157       .  T
C782        N784   1.157       .  T
C787       C1812   1.400       .  A
C787        C792   1.425       .  A
C788       C1811   1.400       .  A
C788        C789   1.409   1_655  A
C788        C793   1.452       .  S
C789        C796   1.451   1_455  S
C790        C791   1.400       .  A
C791       C1304   1.409   1_565  A
C791       C1818   1.452       .  S
C792       C1303   1.408       .  A
C792        C795   1.452       .  S
C793        N800   1.157       .  T
C794       C1815   1.452       .  S
C794        N799   1.157       .  T
C796        N798   1.157       .  T
C801        C802   1.405       .  A
C801        C806   1.422       .  A
C802        C803   1.414       .  A
C802        C807   1.451       .  S
C803        C804   1.427       .  A
C803        C810   1.452       .  S
C804        C805   1.409       .  A
C805        C806   1.411       .  A
C805        C808   1.453       .  S
C806        C809   1.450       .  S
C807        N814   1.157       .  T
C808        N813   1.158       .  T
C809        N811   1.156       .  T
C810        N812   1.157       .  T
C815        C816   1.403       .  A
C815        C820   1.418       .  A
C816        C817   1.415       .  A
C816        C821   1.452       .  S
C817        C818   1.432       .  A
C817        C824   1.449       .  S
C818        C819   1.410       .  A
C819        C820   1.412       .  A
C819        C822   1.452       .  S
C820        C823   1.448       .  S
C821        N828   1.157       .  T
C822        N827   1.157       .  T
C823        N825   1.156       .  T
C824        N826   1.157   1_455  T
C829        C830   1.429       .  A
C829        C834   1.413       .  A
C830        C831   1.412       .  A
C830        C835   1.454       .  S
C831        C832   1.408       .  A
C831        C838   1.453       .  S
C832        C833   1.422       .  A
C833        C834   1.420       .  A
C833        C836   1.451       .  S
C834        C837   1.450       .  S
C835        N842   1.157       .  T
C836        N841   1.157       .  T
C837        N839   1.157       .  T
C838        N840   1.157       .  T
C843        C844   1.420       .  A
C843        C848   1.405       .  A
C844        C845   1.414       .  A
C844        C849   1.452       .  S
C845        C846   1.412       .  A
C845        C852   1.450       .  S
C846        C847   1.430       .  A
C847        C848   1.411       .  A
C847        C850   1.451       .  S
C848        C851   1.453       .  S
C849        N856   1.158       .  T
C850        N855   1.157       .  T
C851        N853   1.157       .  T
C852        N854   1.157       .  T
C857        C858   1.426       .  A
C857        C862   1.397   1_556  A
C858        C859   1.407       .  A
C858        C863   1.453       .  S
C859        C860   1.401   1_556  A
C859        C866   1.451       .  S
C860        C861   1.433       .  A
C861        C862   1.404       .  A
C861        C864   1.454       .  S
C862        C865   1.453       .  S
C863        N870   1.157       .  T
C864        N869   1.157       .  T
C865        N867   1.157       .  T
C866        N868   1.157       .  T
C871        C872   1.412       .  A
C871        C876   1.419       .  A
C872       C1897   1.420       .  A
C872       C1901   1.449       .  S
C873       C1896   1.421       .  A
C873        C874   1.419       .  A
C873        C880   1.450       .  S
C874       C1899   1.410       .  A
C875       C1898   1.409       .  A
C875        C876   1.413   1_655  A
C875        C878   1.452       .  S
C876        C879   1.450       .  S
C877       C1896   1.448       .  S
C877        N884   1.157       .  T
C878        N883   1.157       .  T
C879        N881   1.157       .  T
C880        N882   1.157       .  T
C885        C886   1.419   1_556  A
C885        C890   1.405       .  A
C886        C887   1.407       .  A
C886        C891   1.449       .  S
C887        C888   1.408       .  A
C887        C894   1.453       .  S
C888        C889   1.428       .  A
C889        C890   1.412   1_554  A
C889        C892   1.449       .  S
C890        C893   1.452       .  S
C891        N898   1.156       .  T
C892        N897   1.156   1_454  T
C893        N895   1.157       .  T
C894        N896   1.157       .  T
C899        C900   1.424   1_554  A
C899        C904   1.404       .  A
C900        C901   1.412       .  A
C900        C905   1.453       .  S
C901        C902   1.409       .  A
C901        C908   1.452       .  S
C902        C903   1.428       .  A
C903        C904   1.413   1_556  A
C903        C906   1.449       .  S
C904        C907   1.451       .  S
C905        N912   1.157       .  T
C906        N911   1.156       .  T
C907        N909   1.157       .  T
C908        N910   1.158       .  T
C913        C914   1.420       .  A
C913        C918   1.413       .  A
C914        C915   1.414       .  A
C915        C916   1.407       .  A
C915        C922   1.447       .  S
C916        C917   1.420       .  A
C917        C918   1.413       .  A
C917        C920   1.448       .  S
C918        C921   1.454       .  S
C919        N926   1.157       .  T
C920        N925   1.157       .  T
C921        N923   1.158       .  T
C922        N924   1.156       .  T
C927        C928   1.417       .  A
C927        C932   1.436       .  A
C928        C929   1.413       .  A
C928        C933   1.452       .  S
C929        C930   1.419       .  A
C929        C936   1.450       .  S
C930        C931   1.403       .  A
C931        C932   1.418       .  A
C931        C934   1.452       .  S
C932        C935   1.452       .  S
C933        N940   1.157       .  T
C934        N939   1.157       .  T
C935        N937   1.158       .  T
C936        N938   1.156       .  T
C941       C1966   1.429   1_455  A
C941        C946   1.413       .  A
C942       C1965   1.427       .  A
C942        C943   1.415       .  A
C942        C947   1.453       .  S
C943        C944   1.408       .  A
C943        C950   1.451       .  S
C944       C1969   1.420       .  A
C945       C1968   1.420   1_455  A
C945        C946   1.418       .  A
C945        C948   1.452       .  S
C946        C949   1.448       .  S
C947        N954   1.157       .  T
C948        N953   1.157       .  T
C949        N951   1.157       .  T
C950        N952   1.157       .  T
C955       C1984   1.409   1_554  A
C956        C957   1.408       .  A
C956        C961   1.451       .  S
C957       C1982   1.409   1_554  A
C957        C964   1.441       .  S
C958       C1981   1.411   1_456  A
C958        C959   1.421       .  A
C959        C962   1.449       .  S
C960       C1979   1.408   1_456  A
C960        C963   1.443       .  S
C961        N968   1.157       .  T
C962        N967   1.156       .  T
C963        N965   1.155       .  T
C964        N966   1.154       .  T
C969        C970   1.429       .  A
C969        C974   1.412       .  A
C970        C971   1.417       .  A
C970        C975   1.451       .  S
C971        C972   1.407       .  A
C971        C978   1.450       .  S
C972        C973   1.418       .  A
C973        C974   1.411       .  A
C973        C976   1.451       .  S
C974        C977   1.449       .  S
C975        N982   1.157       .  T
C976        N981   1.157       .  T
C977        N979   1.157       .  T
C978        N980   1.157       .  T
C983        C984   1.403       .  A
C983        C988   1.415       .  A
C984        C985   1.414   1_565  A
C984        C989   1.452       .  S
C987        C988   1.411       .  A
C987        C990   1.452       .  S
C988        C991   1.454       .  S
C989        N996   1.157       .  T
C990        N995   1.157       .  T
C991        N993   1.157       .  T
C992        N994   1.158       .  T
C997        C998   1.414       .  A
C997       C1002   1.414       .  A
C998        C999   1.408   1_554  A
C998       C1003   1.445       .  S
C999       C1000   1.408       .  A
C999       C1006   1.447       .  S
C1000      C1001   1.418       .  A
C1001      C1002   1.416   1_556  A
C1001      C1004   1.452       .  S
C1002      C1005   1.447       .  S
C1003      N1010   1.156       .  T
C1004      N1009   1.157       .  T
C1005      N1007   1.156       .  T
C1006      N1008   1.156       .  T
C1011      C1012   1.421   1_554  A
C1011      C1016   1.405       .  A
C1012      C1013   1.411       .  A
C1012      C1017   1.453       .  S
C1013      C1014   1.411       .  A
C1013      C1020   1.452       .  S
C1014      C1015   1.427       .  A
C1015      C1016   1.411   1_556  A
C1015      C2042   1.452   1_556  S
C1016      C1019   1.451       .  S
C1017      N1024   1.157       .  T
C1018      C2039   1.451   1_454  S
C1018      N1023   1.157       .  T
C1019      N1021   1.157       .  T
C1020      N1022   1.158       .  T
O1025     Cr1043   2.021       .  S
O1025      C1033   1.271       .  A
O1026     Cr1043   1.941       .  S
O1026      C1027   1.246       .  A
C1027      O1028   1.279       .  A
C1027      C1470   1.496       .  S
O1028     Cr1044   2.073       .  S
O1029     Cr1044   1.944       .  S
O1029      C1030   1.252       .  A
C1030      O1031   1.279       .  A
C1030      C1512   1.488       .  S
O1031     Cr1045   2.067       .  S
O1032     Cr1045   1.959       .  S
O1032      C1033   1.254       .  A
C1033      C1498   1.513       .  S
O1034     Cr1043   1.949       .  S
O1034      C1042   1.254       .  A
O1035      C1036   1.276       .  A
C1036      C1526   1.494   1_455  S
O1037     Cr1044   1.954       .  S
O1038     Cr1044   2.055       .  S
O1038      C1039   1.280       .  A
C1039      O1040   1.255       .  A
C1039      C1481   1.500       .  S
O1040     Cr1045   1.956       .  S
O1041     Cr1045   2.064       .  S
O1041      C1042   1.281       .  A
C1042      C1453   1.503       .  S
Cr1043     O1046   1.745       .  S
Cr1044     O1046   1.749       .  S
Cr1045     O1046   1.758       .  S
O1047     Cr1065   1.966       .  S
O1047      C1055   1.256       .  A
O1048     Cr1065   2.065       .  S
O1048      C1049   1.279       .  A
C1049      O1050   1.249       .  A
C1049      C1411   1.494       .  S
O1050     Cr1066   1.938       .  S
O1051     Cr1066   2.063       .  S
O1051      C1052   1.279       .  A
C1052      O1053   1.253       .  A
C1052      C1467   1.493       .  S
O1053     Cr1067   1.944       .  S
O1054     Cr1067   2.024       .  S
O1054      C1055   1.270       .  A
C1055      C1937   1.499       .  S
O1056     Cr1065   2.063       .  S
O1056      C1064   1.282       .  A
O1057     Cr1065   1.949       .  S
O1057      C1058   1.252       .  A
C1058      O1059   1.278       .  A
C1058      C1439   1.515       .  S
O1059     Cr1066   2.051       .  S
O1060     Cr1066   1.957       .  S
C1061      O1062   1.273       .  A
C1061      C1400   1.493       .  S
O1063     Cr1067   1.954       .  S
O1063      C1064   1.255       .  A
C1064      C1386   1.490       .  S
Cr1065     O1068   1.754       .  S
Cr1066     O1068   1.748       .  S
Cr1067     O1068   1.750       .  S
O1069     Cr1087   1.965       .  S
O1069      C1077   1.254       .  A
O1070     Cr1087   2.042       .  S
O1070      C1071   1.274       .  A
C1071      O1072   1.252       .  A
C1071      C1397   1.476       .  S
O1072     Cr1088   1.938       .  S
O1073     Cr1088   2.073       .  S
O1073      C1074   1.279       .  A
C1074      O1075   1.239       .  A
C1074      C1369   1.486       .  S
O1075     Cr1089   1.928       .  S
O1076     Cr1089   2.024       .  S
O1076      C1077   1.269       .  A
C1077      C1484   1.497       .  S
O1078     Cr1087   2.044       .  S
O1078      C1086   1.280       .  A
O1079     Cr1087   1.947       .  S
O1079      C1080   1.254       .  A
C1080      O1081   1.276       .  A
C1080      C1495   1.483       .  S
O1081     Cr1088   2.047       .  S
O1082     Cr1088   1.955       .  S
O1082      C1083   1.251       .  A
C1083      O1084   1.274       .  A
C1083      C1414   1.499       .  S
O1084     Cr1089   2.057       .  S
O1085     Cr1089   1.941       .  S
O1085      C1086   1.256       .  A
C1086      C1355   1.487       .  S
Cr1087     O1090   1.752       .  S
Cr1088     O1090   1.754       .  S
Cr1089     O1090   1.750       .  S
O1091     Cr1109   2.031       .  S
O1091      C1099   1.271       .  A
O1092     Cr1109   1.916       .  S
O1092      C1093   1.235       .  A
C1093      O1094   1.282       .  A
C1093      C1372   1.492       .  S
O1094     Cr1110   2.085       .  S
O1095     Cr1110   1.930       .  S
O1095      C1096   1.249       .  A
C1096      O1097   1.275       .  A
C1096      C1523   1.481       .  S
O1097     Cr1111   2.043       .  S
O1098     Cr1111   1.955       .  S
O1098      C1099   1.249       .  A
C1099      C1442   1.491       .  S
O1100     Cr1109   1.929       .  S
O1100      C1108   1.250       .  A
O1101     Cr1109   2.048       .  S
O1101      C1102   1.274       .  A
C1102      O1103   1.255       .  A
C1102      C1509   1.506       .  S
O1103     Cr1110   1.957       .  S
O1104     Cr1110   2.068       .  S
O1104      C1105   1.282       .  A
C1105      O1106   1.256       .  A
C1105      C1428   1.493       .  S
O1106     Cr1111   1.954       .  S
O1107     Cr1111   2.076       .  S
O1107      C1108   1.285       .  A
C1108      C1341   1.500       .  S
Cr1109     O1112   1.742       .  S
Cr1110     O1112   1.756       .  S
Cr1111     O1112   1.757       .  S
O1113     Cr1131   2.023       .  S
O1113      C1121   1.273       .  A
O1114     Cr1131   1.930       .  S
O1114      C1115   1.243       .  A
C1115      O1116   1.277       .  A
C1115      C1299   1.480       .  S
O1116     Cr1132   2.069       .  S
O1117     Cr1132   1.945       .  S
O1117      C1118   1.252       .  A
C1118      O1119   1.279       .  A
C1118      C1316   1.500       .  S
O1119     Cr1133   2.061       .  S
O1120     Cr1133   1.964       .  S
O1120      C1121   1.255       .  A
C1121      C1274   1.504       .  S
O1122     Cr1131   1.954       .  S
O1122      C1130   1.257       .  A
O1123      C1124   1.274       .  A
C1124      O1125   1.249       .  A
C1124      C1330   1.510       .  S
O1126     Cr1132   2.051       .  S
O1126      C1127   1.278       .  A
C1127      O1128   1.255       .  A
C1127      C1285   1.518       .  S
O1128     Cr1133   1.954       .  S
O1129     Cr1133   2.065       .  S
O1129      C1130   1.283       .  A
C1130      C1456   1.499       .  S
Cr1131     O1134   1.754       .  S
Cr1132     O1134   1.751       .  S
Cr1133     O1134   1.756       .  S
O1135     Cr1153   1.970       .  S
O1135      C1143   1.256       .  A
O1136     Cr1153   2.059       .  S
O1136      C1137   1.279       .  A
C1137      O1138   1.254       .  A
C1137      C1229   1.494       .  S
O1138     Cr1154   1.942       .  S
O1139     Cr1154   2.069       .  S
O1139      C1140   1.277       .  A
C1140      O1141   1.243       .  A
C1140      C1302   1.479       .  S
O1141     Cr1155   1.930       .  S
O1142     Cr1155   2.022       .  S
O1142      C1143   1.271       .  A
C1143      C1755   1.500       .  S
O1144     Cr1153   2.066       .  S
O1144      C1152   1.282       .  A
O1145     Cr1153   1.963       .  S
O1145      C1146   1.257       .  A
C1146      O1147   1.276       .  A
C1146      C1257   1.515       .  S
O1147     Cr1154   2.047       .  S
O1148     Cr1154   1.953       .  S
C1149      O1150   1.271       .  A
C1149      C1218   1.495       .  S
O1151     Cr1155   1.943       .  S
O1151      C1152   1.253       .  A
C1152      C1383   1.490       .  S
Cr1153     O1156   1.755       .  S
Cr1154     O1156   1.752       .  S
Cr1155     O1156   1.754       .  S
O1157     Cr1175   1.967       .  S
O1157      C1165   1.254       .  A
O1158     Cr1175   2.051       .  S
O1158      C1159   1.276       .  A
C1159      O1160   1.251       .  A
C1159      C1215   1.478       .  S
O1160     Cr1176   1.934       .  S
O1161     Cr1176   2.077       .  S
O1161      C1162   1.278       .  A
C1162      O1163   1.239       .  A
C1162      C1201   1.485       .  S
O1163     Cr1177   1.928       .  S
O1164     Cr1177   2.027       .  S
O1164      C1165   1.270       .  A
C1165      C1288   1.490       .  S
O1166     Cr1175   2.063       .  S
O1166      C1174   1.282       .  A
O1167     Cr1175   1.952       .  S
O1167      C1168   1.255       .  A
C1168      O1169   1.280       .  A
C1168      C1271   1.500       .  S
O1169     Cr1176   2.055       .  S
O1170     Cr1176   1.956       .  S
O1170      C1171   1.254       .  A
C1171      O1172   1.274       .  A
C1171      C1232   1.496       .  S
O1172     Cr1177   2.054       .  S
O1173     Cr1177   1.940       .  S
O1173      C1174   1.254       .  A
C1174      C1358   1.499       .  S
Cr1175     O1178   1.756       .  S
Cr1176     O1178   1.757       .  S
Cr1177     O1178   1.744       .  S
O1179     Cr1197   2.026       .  S
O1179      C1187   1.270       .  A
O1180     Cr1197   1.928       .  S
O1180      C1181   1.240       .  A
C1181      O1182   1.279       .  A
C1181      C1204   1.482       .  S
O1182     Cr1198   2.075       .  S
O1183     Cr1198   1.942       .  S
O1183      C1184   1.253       .  A
C1184      O1185   1.279       .  A
C1184      C1327   1.490       .  S
O1185     Cr1199   2.062       .  S
O1186     Cr1199   1.971       .  S
O1186      C1187   1.258       .  A
C1187      C1260   1.496       .  S
O1188     Cr1197   1.944       .  S
O1188      C1196   1.255       .  A
O1189     Cr1197   2.058       .  S
O1189      C1190   1.273       .  A
C1190      O1191   1.252       .  A
C1190      C1313   1.496       .  S
O1191     Cr1198   1.955       .  S
O1192     Cr1198   2.055       .  S
O1192      C1193   1.279       .  A
C1193      O1194   1.251       .  A
C1193      C1246   1.503       .  S
O1194     Cr1199   1.948       .  S
O1195     Cr1199   2.051       .  S
O1195      C1196   1.281       .  A
C1196      C1344   1.493       .  S
Cr1197     O1200   1.753       .  S
Cr1198     O1200   1.756       .  S
Cr1199     O1200   1.750       .  S
C1201      C1202   1.401       .  A
C1201      C1206   1.431       .  A
C1202      C1203   1.409       .  A
C1202      C1207   1.452       .  S
C1203      C1204   1.430       .  A
C1203      C1210   1.453       .  S
C1204      C1205   1.398       .  A
C1205      C1206   1.406       .  A
C1205      C1208   1.453       .  S
C1206      C1209   1.451       .  S
C1207      N1214   1.157       .  T
C1208      N1213   1.157       .  T
C1209      N1211   1.156       .  T
C1210      N1212   1.158       .  T
C1215      C1216   1.417       .  A
C1215      C1220   1.400       .  A
C1216      C1217   1.410       .  A
C1216      C1221   1.449       .  S
C1217      C1218   1.410       .  A
C1217      C1224   1.452       .  S
C1218      C1219   1.428       .  A
C1219      C1220   1.410       .  A
C1220      C1223   1.453       .  S
C1221      N1228   1.156       .  T
C1222      N1227   1.156       .  T
C1223      N1225   1.157       .  T
C1224      N1226   1.157       .  T
C1229      C1230   1.424       .  A
C1229      C1234   1.406       .  A
C1230      C1231   1.414       .  A
C1230      C1235   1.452       .  S
C1231      C1232   1.408       .  A
C1231      C1238   1.451       .  S
C1232      C1233   1.425       .  A
C1233      C1234   1.413       .  A
C1233      C1236   1.449       .  S
C1234      C1237   1.452       .  S
C1235      N1242   1.157       .  T
C1236      N1241   1.156       .  T
C1237      N1239   1.157       .  T
C1238      N1240   1.157       .  T
C1243      C1655   1.498       .  S
C1243      C1244   1.423       .  A
C1243      C1248   1.408   1_565  A
C1244      C1245   1.412   1_565  A
C1244      C1761   1.448       .  S
C1245      C1246   1.409       .  A
C1245      C1252   1.453       .  S
C1246      C1247   1.430       .  A
C1247      C1248   1.415       .  A
C1247      C1250   1.453       .  S
C1248      C1251   1.452       .  S
C1249      C1756   1.447       .  S
C1249      N1256   1.156       .  T
C1250      N1255   1.158       .  T
C1251      N1765   1.157       .  T
C1252      N1254   1.157       .  T
N1253      C1763   1.157       .  T
C1257      C1258   1.420       .  A
C1257      C1262   1.432       .  A
C1258      C1259   1.414       .  A
C1258      C1263   1.450       .  S
C1259      C1260   1.416       .  A
C1259      C1266   1.452       .  S
C1260      C1261   1.408       .  A
C1261      C1262   1.418       .  A
C1261      C1264   1.451       .  S
C1262      C1265   1.452       .  S
C1263      N1270   1.156       .  T
C1264      N1269   1.157       .  T
C1265      N1267   1.158       .  T
C1266      N1268   1.157       .  T
C1271      C1272   1.427       .  A
C1271      C1276   1.406       .  A
C1272      C1273   1.416       .  A
C1272      C1277   1.452       .  S
C1273      C1786   1.410       .  A
C1273      C1280   1.451       .  S
C1274      C1785   1.413   1_545  A
C1274      C1787   1.426       .  A
C1275      C1786   1.425       .  A
C1275      C1276   1.412       .  A
C1275      C1790   1.447       .  S
C1276      C1279   1.453       .  S
C1277      N1284   1.158       .  T
C1278      C1787   1.448       .  S
C1278      N1283   1.156       .  T
C1279      N1281   1.157       .  T
C1280      N1282   1.157       .  T
C1285      C1286   1.435       .  A
C1285      C1290   1.422       .  A
C1286      C1287   1.418       .  A
C1286      C1291   1.452       .  S
C1287      C1288   1.404       .  A
C1287      C1294   1.452       .  S
C1288      C1289   1.413       .  A
C1289      C1290   1.412       .  A
C1289      C1292   1.452       .  S
C1290      C1293   1.451       .  S
C1291      N1298   1.158       .  T
C1292      N1297   1.157       .  T
C1293      N1295   1.157       .  T
C1294      N1296   1.157       .  T
C1299      C1304   1.428   1_655  A
C1300      C1301   1.406   1_545  A
C1300      C1305   1.452       .  S
C1301      C1814   1.424       .  A
C1301      C1308   1.450       .  S
C1302      C1813   1.426       .  A
C1302      C1303   1.401       .  A
C1304      C1307   1.453       .  S
C1305      N1312   1.157       .  T
C1306      N1311   1.157       .  T
C1307      N1821   1.158       .  T
C1308      N1310   1.157       .  T
N1309      C1819   1.158       .  T
C1313      C1314   1.405       .  A
C1313      C1318   1.424       .  A
C1314      C1315   1.415       .  A
C1314      C1319   1.451       .  S
C1315      C1316   1.427       .  A
C1315      C1322   1.451       .  S
C1316      C1317   1.408       .  A
C1317      C1318   1.413       .  A
C1317      C1320   1.452       .  S
C1318      C1321   1.449       .  S
C1319      N1326   1.157       .  T
C1320      N1325   1.158       .  T
C1321      N1323   1.156       .  T
C1322      N1324   1.157       .  T
C1327      C1328   1.401       .  A
C1327      C1332   1.418       .  A
C1328      C1329   1.414       .  A
C1328      C1333   1.452       .  S
C1329      C1330   1.431       .  A
C1329      C1336   1.446       .  S
C1330      C1331   1.413       .  A
C1331      C1332   1.416       .  A
C1331      C1334   1.451       .  S
C1332      C1335   1.449       .  S
C1333      N1340   1.157       .  T
C1334      N1339   1.157       .  T
C1335      N1337   1.156       .  T
C1336      N1338   1.155       .  T
C1341      C1342   1.428       .  A
C1341      C1346   1.411       .  A
C1342      C1343   1.410       .  A
C1342      C1347   1.454       .  S
C1343      C1344   1.407       .  A
C1343      C1350   1.452       .  S
C1344      C1345   1.421       .  A
C1345      C1346   1.417       .  A
C1345      C1348   1.452       .  S
C1346      C1349   1.450       .  S
C1347      N1354   1.158       .  T
C1348      N1353   1.157       .  T
C1349      N1351   1.157       .  T
C1350      N1352   1.157       .  T
C1355      C1356   1.419       .  A
C1355      C1360   1.406       .  A
C1356      C1357   1.415       .  A
C1356      C1361   1.452       .  S
C1357      C1358   1.413       .  A
C1357      C1364   1.449       .  S
C1358      C1359   1.426       .  A
C1359      C1360   1.409       .  A
C1359      C1362   1.451       .  S
C1360      C1363   1.453       .  S
C1361      N1368   1.158       .  T
C1362      N1367   1.157       .  T
C1363      N1365   1.157       .  T
C1364      N1366   1.157       .  T
C1369      C1370   1.431       .  A
C1369      C1374   1.400   1_556  A
C1370      C1371   1.408       .  A
C1370      C1375   1.454       .  S
C1371      C1372   1.402   1_556  A
C1371      C1378   1.452       .  S
C1372      C1373   1.437       .  A
C1373      C1374   1.408       .  A
C1373      C1376   1.455       .  S
C1374      C1377   1.454       .  S
C1375      N1382   1.158       .  T
C1376      N1381   1.158       .  T
C1377      N1379   1.158       .  T
C1378      N1380   1.157       .  T
C1383      C1384   1.412       .  A
C1383      C1388   1.417       .  A
C1385      C1386   1.417   1_455  A
C1385      C1392   1.450   1_455  S
C1387      C1388   1.410       .  A
C1387      C1390   1.452       .  S
C1388      C1391   1.451       .  S
C1389      N1396   1.157       .  T
C1390      N1395   1.157       .  T
C1391      N1393   1.157       .  T
C1392      N1394   1.157       .  T
C1397      C1398   1.414   1_556  A
C1397      C1402   1.404       .  A
C1398      C1399   1.405       .  A
C1398      C1403   1.449       .  S
C1399      C1400   1.411       .  A
C1399      C1406   1.453       .  S
C1400      C1401   1.429       .  A
C1401      C1402   1.412   1_554  A
C1401      C1404   1.450   1_554  S
C1402      C1405   1.452       .  S
C1403      N1410   1.156       .  T
C1404      N1409   1.157       .  T
C1405      N1407   1.157       .  T
C1406      N1408   1.157       .  T
C1411      C1412   1.425   1_554  A
C1411      C1416   1.404       .  A
C1412      C1413   1.414       .  A
C1412      C1417   1.452       .  S
C1413      C1414   1.408       .  A
C1413      C1420   1.451       .  S
C1414      C1415   1.426       .  A
C1415      C1416   1.412   1_556  A
C1415      C1418   1.448       .  S
C1416      C1419   1.450       .  S
C1417      N1424   1.157       .  T
C1418      N1423   1.155   1_556  T
C1419      N1421   1.157       .  T
C1420      N1422   1.158       .  T
C1425      C1567   1.499       .  S
C1425      C1426   1.420   1_565  A
C1425      C1430   1.412   1_565  A
C1426      C1427   1.415       .  A
C1426      C1943   1.451   1_545  S
C1427      C1428   1.409       .  A
C1427      C1434   1.449       .  S
C1428      C1429   1.421       .  A
C1429      C1430   1.414       .  A
C1429      C1432   1.448       .  S
C1430      C1433   1.453       .  S
C1431      C1938   1.450       .  S
C1431      N1438   1.157       .  T
C1432      N1437   1.157       .  T
C1433      N1435   1.158       .  T
C1434      N1436   1.157       .  T
C1439      C1440   1.417       .  A
C1439      C1444   1.436       .  A
C1440      C1441   1.411       .  A
C1440      C1445   1.451       .  S
C1441      C1442   1.417       .  A
C1441      C1448   1.450       .  S
C1442      C1443   1.403       .  A
C1443      C1444   1.418       .  A
C1443      C1446   1.452       .  S
C1444      C1447   1.452       .  S
C1445      N1452   1.157       .  T
C1446      N1451   1.157       .  T
C1447      N1449   1.158       .  T
C1448      N1450   1.156       .  T
C1453      C1458   1.413       .  A
C1454      C1455   1.417       .  A
C1454      C1459   1.452       .  S
C1455      C1456   1.410       .  A
C1455      C1462   1.450       .  S
C1457      C1458   1.416       .  A
C1457      C1460   1.452       .  S
C1458      C1461   1.448       .  S
C1459      N1466   1.157       .  T
C1460      N1465   1.157       .  T
C1461      N1463   1.157       .  T
C1462      N1464   1.157       .  T
C1467      C1980   1.414       .  A
C1468      C1979   1.414   1_545  A
C1468      C1469   1.407   1_655  A
C1468      C1473   1.452       .  S
C1469      C1476   1.442   1_455  S
C1470      C1471   1.421   1_545  A
C1471      C1984   1.414       .  A
C1471      C1474   1.450       .  S
C1472      C1983   1.411       .  A
C1472      C1475   1.444       .  S
C1473      N1480   1.157       .  T
C1474      N1479   1.156       .  T
C1475      N1477   1.155       .  T
C1476      N1478   1.154       .  T
C1481      C1482   1.427       .  A
C1481      C1486   1.409       .  A
C1482      C1483   1.416       .  A
C1482      C1487   1.452       .  S
C1483      C1484   1.409       .  A
C1483      C1490   1.450       .  S
C1484      C1485   1.419       .  A
C1485      C1486   1.410       .  A
C1485      C1488   1.450       .  S
C1486      C1489   1.450       .  S
C1487      N1494   1.157       .  T
C1488      N1493   1.157       .  T
C1489      N1491   1.157       .  T
C1490      N1492   1.157       .  T
C1495      C1496   1.403       .  A
C1495      C1500   1.415       .  A
C1496      C1497   1.414       .  A
C1496      C1501   1.452       .  S
C1497      C2010   1.434       .  A
C1497      C2016   1.452       .  S
C1498      C2009   1.434       .  A
C1498      C2011   1.421   1_545  A
C1499      C2010   1.418       .  A
C1499      C1500   1.411       .  A
C1499      C1502   1.452       .  S
C1500      C1503   1.453       .  S
C1501      N1508   1.157       .  T
C1502      N1507   1.158       .  T
C1503      N1505   1.157       .  T
C1504      C2009   1.452       .  S
C1504      N1506   1.158       .  T
C1509      C1510   1.419       .  A
C1509      C1514   1.421       .  A
C1510      C1511   1.411   1_554  A
C1510      C1515   1.449       .  S
C1511      C1512   1.409       .  A
C1511      C1518   1.446       .  S
C1512      C1513   1.413       .  A
C1513      C1514   1.415   1_556  A
C1513      C1516   1.452       .  S
C1514      C1517   1.448       .  S
C1515      N1522   1.157       .  T
C1516      N1521   1.157       .  T
C1517      N1519   1.156       .  T
C1518      N1520   1.155       .  T
C1523      C1524   1.418   1_554  A
C1523      C1528   1.403       .  A
C1524      C1525   1.409       .  A
C1524      C1529   1.453       .  S
C1525      C1526   1.411       .  A
C1525      C1532   1.452       .  S
C1526      C1527   1.429   1_556  A
C1527      C1528   1.412       .  A
C1528      C1531   1.452       .  S
C1529      N1536   1.157       .  T
C1530      N1535   1.157       .  T
C1531      N1533   1.157       .  T
C1532      N1534   1.157       .  T
O1537     Cr1555   2.023       .  S
O1537      C1545   1.272       .  A
O1538     Cr1555   1.937       .  S
O1538      C1539   1.246       .  A
C1539      O1540   1.277       .  A
C1539      C1982   1.494       .  S
O1540     Cr1556   2.070       .  S
O1541     Cr1556   1.949       .  S
O1541      C1542   1.255       .  A
C1542      O1543   1.281       .  A
C1542      C2024   1.490       .  S
O1543     Cr1557   2.069       .  S
O1544     Cr1557   1.951       .  S
O1544      C1545   1.252       .  A
C1545      C2010   1.509       .  S
O1546     Cr1555   1.946       .  S
O1546      C1554   1.253       .  A
O1547      C1548   1.276   1_455  A
C1548      C2038   1.492       .  S
O1549     Cr1556   1.956       .  S
O1550     Cr1556   2.049       .  S
O1550      C1551   1.277       .  A
C1551      O1552   1.254       .  A
C1551      C1993   1.500       .  S
O1552     Cr1557   1.956       .  S
O1553     Cr1557   2.068       .  S
O1553      C1554   1.282       .  A
C1554      C1965   1.506       .  S
Cr1555     O1558   1.744       .  S
Cr1556     O1558   1.750       .  S
Cr1557     O1558   1.756       .  S
O1559     Cr1577   1.954       .  S
O1559      C1567   1.254       .  A
O1560     Cr1577   2.066       .  S
O1560      C1561   1.280       .  A
C1561      O1562   1.249       .  A
C1561      C1923   1.494       .  S
O1562     Cr1578   1.939       .  S
O1563     Cr1578   2.068       .  S
O1563      C1564   1.278       .  A
C1564      O1565   1.251       .  A
C1564      C1979   1.490       .  S
O1565     Cr1579   1.935       .  S
O1566     Cr1579   2.036       .  S
O1566      C1567   1.274       .  A
O1568     Cr1577   2.065       .  S
O1568      C1576   1.282       .  A
O1569     Cr1577   1.946       .  S
O1569      C1570   1.251       .  A
C1570      O1571   1.278       .  A
C1570      C1951   1.514       .  S
O1571     Cr1578   2.052       .  S
O1572     Cr1578   1.952       .  S
C1573      O1574   1.273       .  A
C1573      C1912   1.498       .  S
O1575     Cr1579   1.951       .  S
O1575      C1576   1.253       .  A
C1576      C1898   1.490       .  S
Cr1577     O1580   1.751       .  S
Cr1578     O1580   1.749       .  S
Cr1579     O1580   1.747       .  S
O1581     Cr1599   1.955       .  S
O1581      C1589   1.253       .  A
O1582     Cr1599   2.046       .  S
O1582      C1583   1.275       .  A
C1583      O1584   1.253       .  A
C1583      C1909   1.481       .  S
O1584     Cr1600   1.940       .  S
O1585     Cr1600   2.073       .  S
O1585      C1586   1.280       .  A
C1586      O1587   1.241       .  A
C1586      C1881   1.481       .  S
O1587     Cr1601   1.922       .  S
O1588     Cr1601   2.030       .  S
O1588      C1589   1.272       .  A
C1589      C1996   1.494       .  S
O1590     Cr1599   2.049       .  S
O1590      C1598   1.280       .  A
O1591     Cr1599   1.946       .  S
O1591      C1592   1.253       .  A
C1592      O1593   1.277       .  A
C1592      C2007   1.484       .  S
O1593     Cr1600   2.049       .  S
O1594     Cr1600   1.955       .  S
O1594      C1595   1.250       .  A
C1595      O1596   1.273       .  A
C1595      C1926   1.502       .  S
O1596     Cr1601   2.055       .  S
O1597     Cr1601   1.940       .  S
O1597      C1598   1.254       .  A
C1598      C1867   1.482       .  S
Cr1599     O1602   1.756       .  S
Cr1600     O1602   1.753       .  S
Cr1601     O1602   1.754       .  S
O1603     Cr1621   2.030       .  S
O1603      C1611   1.270       .  A
O1604     Cr1621   1.916       .  S
O1604      C1605   1.237       .  A
C1605      O1606   1.281       .  A
C1605      C1884   1.485       .  S
O1606     Cr1622   2.083       .  S
O1607     Cr1622   1.926       .  S
O1607      C1608   1.247       .  A
C1608      O1609   1.275       .  A
C1608      C2035   1.479       .  S
O1609     Cr1623   2.047       .  S
O1610     Cr1623   1.958       .  S
O1610      C1611   1.249       .  A
C1611      C1954   1.491       .  S
O1612     Cr1621   1.926       .  S
O1612      C1620   1.250       .  A
O1613     Cr1621   2.048       .  S
O1613      C1614   1.274       .  A
C1614      O1615   1.255       .  A
C1614      C2021   1.508       .  S
O1615     Cr1622   1.960       .  S
O1616     Cr1622   2.066       .  S
O1616      C1617   1.282       .  A
C1617      O1618   1.254       .  A
C1617      C1940   1.488       .  S
O1618     Cr1623   1.949       .  S
O1619     Cr1623   2.074       .  S
O1619      C1620   1.285       .  A
C1620      C1853   1.496       .  S
Cr1621     O1624   1.739       .  S
Cr1622     O1624   1.754       .  S
Cr1623     O1624   1.758       .  S
O1625     Cr1643   2.031       .  S
O1625      C1633   1.275       .  A
O1626     Cr1643   1.931       .  S
O1626      C1627   1.243       .  A
C1627      O1628   1.277       .  A
C1627      C1811   1.481       .  S
O1628     Cr1644   2.071       .  S
O1629     Cr1644   1.940       .  S
O1629      C1630   1.252       .  A
C1630      O1631   1.279       .  A
C1630      C1828   1.496       .  S
O1631     Cr1645   2.057       .  S
O1632     Cr1645   1.961       .  S
O1632      C1633   1.254       .  A
C1633      C1786   1.503       .  S
O1634     Cr1643   1.946       .  S
O1634      C1642   1.255       .  A
O1635      C1636   1.273       .  A
C1636      O1637   1.247       .  A
C1636      C1842   1.503       .  S
O1638     Cr1644   2.045       .  S
O1638      C1639   1.276       .  A
C1639      O1640   1.255       .  A
C1639      C1797   1.515       .  S
O1640     Cr1645   1.956       .  S
O1641     Cr1645   2.063       .  S
O1641      C1642   1.282       .  A
C1642      C1968   1.500       .  S
Cr1643     O1646   1.753       .  S
Cr1644     O1646   1.750       .  S
Cr1645     O1646   1.757       .  S
O1647     Cr1665   1.967       .  S
O1647      C1655   1.254       .  A
O1648     Cr1665   2.068       .  S
O1648      C1649   1.280       .  A
C1649      O1650   1.249       .  A
C1649      C1741   1.495       .  S
O1650     Cr1666   1.931       .  S
O1651     Cr1666   2.063       .  S
O1651      C1652   1.275       .  A
C1652      O1653   1.243       .  A
C1652      C1814   1.475       .  S
O1653     Cr1667   1.933       .  S
O1654     Cr1667   2.021       .  S
O1654      C1655   1.271       .  A
O1656     Cr1665   2.076       .  S
O1656      C1664   1.285       .  A
O1657     Cr1665   1.963       .  S
O1657      C1658   1.257       .  A
C1658      O1659   1.278       .  A
C1658      C1769   1.511       .  S
O1659     Cr1666   2.055       .  S
O1660     Cr1666   1.956       .  S
C1661      O1662   1.275       .  A
C1661      C1730   1.508       .  S
O1663     Cr1667   1.945       .  S
O1663      C1664   1.255       .  A
C1664      C1895   1.501       .  S
Cr1665     O1668   1.756       .  S
Cr1666     O1668   1.752       .  S
Cr1667     O1668   1.752       .  S
O1669     Cr1687   1.958       .  S
O1669      C1677   1.254       .  A
O1670     Cr1687   2.057       .  S
O1670      C1671   1.277       .  A
C1671      O1672   1.253       .  A
C1671      C1727   1.481       .  S
O1672     Cr1688   1.942       .  S
O1673     Cr1688   2.077       .  S
O1673      C1674   1.279       .  A
C1674      O1675   1.243       .  A
C1674      C1713   1.477       .  S
O1675     Cr1689   1.917       .  S
O1676     Cr1689   2.034       .  S
O1676      C1677   1.274       .  A
C1677      C1800   1.486       .  S
O1678     Cr1687   2.059       .  S
O1678      C1686   1.278       .  A
O1679     Cr1687   1.949       .  S
O1679      C1680   1.253       .  A
C1680      O1681   1.278       .  A
C1680      C1783   1.494       .  S
O1681     Cr1688   2.050       .  S
O1682     Cr1688   1.948       .  S
O1682      C1683   1.248       .  A
C1683      O1684   1.270       .  A
C1683      C1744   1.486       .  S
O1684     Cr1689   2.043       .  S
O1685     Cr1689   1.933       .  S
O1685      C1686   1.250       .  A
C1686      C1870   1.484       .  S
Cr1687     O1690   1.757       .  S
Cr1688     O1690   1.753       .  S
Cr1689     O1690   1.748       .  S
O1691     Cr1709   2.030       .  S
O1691      C1699   1.272       .  A
O1692     Cr1709   1.922       .  S
O1692      C1693   1.242       .  A
C1693      O1694   1.279       .  A
C1693      C1716   1.475       .  S
O1694     Cr1710   2.076       .  S
O1695     Cr1710   1.937       .  S
O1695      C1696   1.251       .  A
C1696      O1697   1.277       .  A
C1696      C1839   1.485       .  S
O1697     Cr1711   2.060       .  S
O1698     Cr1711   1.964       .  S
O1698      C1699   1.257       .  A
C1699      C1772   1.496       .  S
O1700     Cr1709   1.944       .  S
O1700      C1708   1.254       .  A
O1701     Cr1709   2.047       .  S
O1701      C1702   1.271       .  A
C1702      O1703   1.251       .  A
C1702      C1825   1.490       .  S
O1703     Cr1710   1.953       .  S
O1704     Cr1710   2.057       .  S
O1704      C1705   1.279       .  A
C1705      O1706   1.251       .  A
C1705      C1758   1.500       .  S
O1706     Cr1711   1.946       .  S
O1707     Cr1711   2.047       .  S
O1707      C1708   1.280       .  A
C1708      C1856   1.490       .  S
Cr1709     O1712   1.752       .  S
Cr1710     O1712   1.755       .  S
Cr1711     O1712   1.752       .  S
C1713      C1714   1.399       .  A
C1713      C1718   1.426       .  A
C1714      C1715   1.408       .  A
C1714      C1719   1.451       .  S
C1715      C1716   1.426       .  A
C1715      C1722   1.452       .  S
C1716      C1717   1.399       .  A
C1717      C1718   1.408       .  A
C1717      C1720   1.452       .  S
C1718      C1721   1.451       .  S
C1719      N1726   1.157       .  T
C1720      N1725   1.158       .  T
C1721      N1723   1.157       .  T
C1722      N1724   1.157       .  T
C1727      C1728   1.415       .  A
C1727      C1732   1.403       .  A
C1728      C1729   1.413       .  A
C1728      C1733   1.451       .  S
C1729      C1730   1.417       .  A
C1729      C1736   1.451       .  S
C1730      C1731   1.428       .  A
C1731      C1732   1.412       .  A
C1732      C1735   1.452       .  S
C1733      N1740   1.157       .  T
C1734      N1739   1.154       .  T
C1735      N1737   1.157       .  T
C1736      N1738   1.157       .  T
C1741      C1742   1.428       .  A
C1741      C1746   1.408       .  A
C1742      C1743   1.409       .  A
C1742      C1747   1.450       .  S
C1743      C1744   1.402       .  A
C1743      C1750   1.453       .  S
C1744      C1745   1.424       .  A
C1745      C1746   1.413       .  A
C1745      C1748   1.452       .  S
C1746      C1749   1.451       .  S
C1747      N1754   1.156       .  T
C1748      N1753   1.157       .  T
C1749      N1751   1.157       .  T
C1750      N1752   1.157       .  T
C1755      C1756   1.423       .  A
C1755      C1760   1.410       .  A
C1756      C1757   1.412       .  A
C1757      C1758   1.408       .  A
C1757      C1764   1.453       .  S
C1758      C1759   1.428       .  A
C1759      C1760   1.414       .  A
C1759      C1762   1.453       .  S
C1760      C1763   1.451       .  S
C1761      N1768   1.156       .  T
C1762      N1767   1.158       .  T
C1764      N1766   1.157       .  T
C1769      C1770   1.414       .  A
C1769      C1774   1.431       .  A
C1770      C1771   1.410       .  A
C1770      C1775   1.447       .  S
C1771      C1772   1.415       .  A
C1771      C1778   1.452       .  S
C1772      C1773   1.408       .  A
C1773      C1774   1.419       .  A
C1773      C1776   1.450       .  S
C1774      C1777   1.451       .  S
C1775      N1782   1.155       .  T
C1776      N1781   1.157       .  T
C1777      N1779   1.158       .  T
C1778      N1780   1.157       .  T
C1783      C1784   1.424       .  A
C1783      C1788   1.405       .  A
C1784      C1785   1.414       .  A
C1784      C1789   1.453       .  S
C1785      C1792   1.451       .  S
C1787      C1788   1.411   1_545  A
C1788      C1791   1.453       .  S
C1789      N1796   1.158       .  T
C1790      N1795   1.156       .  T
C1791      N1793   1.157       .  T
C1792      N1794   1.157       .  T
C1797      C1798   1.433       .  A
C1797      C1802   1.422       .  A
C1798      C1799   1.417       .  A
C1798      C1803   1.452       .  S
C1799      C1800   1.404       .  A
C1799      C1806   1.452       .  S
C1800      C1801   1.413       .  A
C1801      C1802   1.411       .  A
C1801      C1804   1.452       .  S
C1802      C1805   1.452       .  S
C1803      N1810   1.158       .  T
C1804      N1809   1.157       .  T
C1805      N1807   1.157       .  T
C1806      N1808   1.158       .  T
C1811      C1816   1.426   1_655  A
C1812      C1813   1.408       .  A
C1812      C1817   1.452       .  S
C1813      C1820   1.451       .  S
C1814      C1815   1.401       .  A
C1816      C1819   1.452       .  S
C1817      N1824   1.157       .  T
C1818      N1823   1.157       .  T
C1820      N1822   1.157       .  T
C1825      C1826   1.405       .  A
C1825      C1830   1.422       .  A
C1826      C1827   1.413       .  A
C1826      C1831   1.451       .  S
C1827      C1828   1.427       .  A
C1827      C1834   1.452       .  S
C1828      C1829   1.409       .  A
C1829      C1830   1.411       .  A
C1829      C1832   1.452       .  S
C1830      C1833   1.450       .  S
C1831      N1838   1.157       .  T
C1832      N1837   1.158       .  T
C1833      N1835   1.156       .  T
C1834      N1836   1.157       .  T
C1839      C1840   1.402       .  A
C1839      C1844   1.417       .  A
C1840      C1841   1.414       .  A
C1840      C1845   1.452       .  S
C1841      C1842   1.432       .  A
C1841      C1848   1.449       .  S
C1842      C1843   1.411       .  A
C1843      C1844   1.411       .  A
C1843      C1846   1.452       .  S
C1844      C1847   1.449       .  S
C1845      N1852   1.157       .  T
C1846      N1851   1.157       .  T
C1847      N1849   1.156       .  T
C1848      N1850   1.156       .  T
C1853      C1854   1.427       .  A
C1853      C1858   1.411       .  A
C1854      C1855   1.408       .  A
C1854      C1859   1.453       .  S
C1855      C1856   1.406       .  A
C1855      C1862   1.452       .  S
C1856      C1857   1.420       .  A
C1857      C1858   1.417       .  A
C1857      C1860   1.451       .  S
C1858      C1861   1.450       .  S
C1859      N1866   1.157       .  T
C1860      N1865   1.157       .  T
C1861      N1863   1.157       .  T
C1862      N1864   1.157       .  T
C1867      C1868   1.419       .  A
C1867      C1872   1.405       .  A
C1868      C1869   1.415       .  A
C1868      C1873   1.451       .  S
C1869      C1870   1.409       .  A
C1869      C1876   1.449       .  S
C1870      C1871   1.418       .  A
C1871      C1872   1.406       .  A
C1871      C1874   1.452       .  S
C1872      C1875   1.450       .  S
C1873      N1880   1.158       .  T
C1874      N1879   1.157       .  T
C1875      N1877   1.157       .  T
C1876      N1878   1.157       .  T
C1881      C1882   1.428       .  A
C1881      C1886   1.398   1_556  A
C1882      C1883   1.409       .  A
C1882      C1887   1.453       .  S
C1883      C1884   1.401   1_556  A
C1883      C1890   1.452       .  S
C1884      C1885   1.433       .  A
C1885      C1886   1.406       .  A
C1885      C1888   1.454       .  S
C1886      C1889   1.453       .  S
C1887      N1894   1.157       .  T
C1888      N1893   1.157       .  T
C1889      N1891   1.157       .  T
C1890      N1892   1.157       .  T
C1895      C1896   1.412       .  A
C1895      C1900   1.421       .  A
C1897      C1898   1.418   1_455  A
C1897      C1904   1.450       .  S
C1899      C1900   1.415       .  A
C1899      C1902   1.452       .  S
C1900      C1903   1.451       .  S
C1901      N1908   1.157       .  T
C1902      N1907   1.157       .  T
C1903      N1905   1.157       .  T
C1904      N1906   1.157       .  T
C1909      C1910   1.415   1_556  A
C1909      C1914   1.406       .  A
C1910      C1911   1.407       .  A
C1910      C1915   1.448       .  S
C1911      C1912   1.412       .  A
C1911      C1918   1.453       .  S
C1912      C1913   1.428       .  A
C1913      C1914   1.413   1_554  A
C1913      C1916   1.449       .  S
C1914      C1917   1.452       .  S
C1915      N1922   1.155       .  T
C1916      N1921   1.157       .  T
C1917      N1919   1.157       .  T
C1918      N1920   1.157       .  T
C1923      C1924   1.424   1_554  A
C1923      C1928   1.403       .  A
C1924      C1925   1.414       .  A
C1924      C1929   1.451       .  S
C1925      C1926   1.409       .  A
C1925      C1932   1.451       .  S
C1926      C1927   1.427       .  A
C1927      C1928   1.413   1_556  A
C1927      C1930   1.447       .  S
C1928      C1931   1.450       .  S
C1929      N1936   1.157       .  T
C1930      N1935   1.155       .  T
C1931      N1933   1.157       .  T
C1932      N1934   1.158       .  T
C1937      C1938   1.420       .  A
C1937      C1942   1.415       .  A
C1938      C1939   1.415       .  A
C1939      C1940   1.408       .  A
C1939      C1946   1.449       .  S
C1940      C1941   1.418       .  A
C1941      C1942   1.412       .  A
C1941      C1944   1.450       .  S
C1942      C1945   1.453       .  S
C1943      N1950   1.157       .  T
C1944      N1949   1.157       .  T
C1945      N1947   1.158       .  T
C1946      N1948   1.157       .  T
C1951      C1952   1.417       .  A
C1951      C1956   1.436       .  A
C1952      C1953   1.411       .  A
C1952      C1957   1.452       .  S
C1953      C1954   1.417       .  A
C1953      C1960   1.450       .  S
C1954      C1955   1.403       .  A
C1955      C1956   1.418       .  A
C1955      C1958   1.452       .  S
C1956      C1959   1.452       .  S
C1957      N1964   1.157       .  T
C1958      N1963   1.157       .  T
C1959      N1961   1.158       .  T
C1960      N1962   1.156       .  T
C1965      C1970   1.412       .  A
C1966      C1967   1.417       .  A
C1966      C1971   1.453       .  S
C1967      C1968   1.409       .  A
C1967      C1974   1.451       .  S
C1969      C1970   1.417       .  A
C1969      C1972   1.452       .  S
C1970      C1973   1.448       .  S
C1971      N1978   1.157       .  T
C1972      N1977   1.157       .  T
C1973      N1975   1.157       .  T
C1974      N1976   1.157       .  T
C1980      C1981   1.410       .  A
C1980      C1985   1.451       .  S
C1981      C1988   1.442       .  S
C1982      C1983   1.420       .  A
C1983      C1986   1.451       .  S
C1984      C1987   1.446       .  S
C1985      N1992   1.157       .  T
C1986      N1991   1.157       .  T
C1987      N1989   1.156       .  T
C1988      N1990   1.155       .  T
C1993      C1994   1.429       .  A
C1993      C1998   1.411       .  A
C1994      C1995   1.416       .  A
C1994      C1999   1.452       .  S
C1995      C1996   1.407       .  A
C1995      C2002   1.450       .  S
C1996      C1997   1.419       .  A
C1997      C1998   1.410       .  A
C1997      C2000   1.451       .  S
C1998      C2001   1.451       .  S
C1999      N2006   1.157       .  T
C2000      N2005   1.157       .  T
C2001      N2003   1.157       .  T
C2002      N2004   1.157       .  T
C2007      C2008   1.403       .  A
C2007      C2012   1.414       .  A
C2008      C2009   1.415   1_565  A
C2008      C2013   1.452       .  S
C2011      C2012   1.412       .  A
C2011      C2014   1.452       .  S
C2012      C2015   1.454       .  S
C2013      N2020   1.157       .  T
C2014      N2019   1.158       .  T
C2015      N2017   1.157       .  T
C2016      N2018   1.158       .  T
C2021      C2022   1.417       .  A
C2021      C2026   1.422       .  A
C2022      C2023   1.409   1_554  A
C2022      C2027   1.448       .  S
C2023      C2024   1.407       .  A
C2023      C2030   1.444       .  S
C2024      C2025   1.414       .  A
C2025      C2026   1.418   1_556  A
C2025      C2028   1.451       .  S
C2026      C2029   1.448       .  S
C2027      N2034   1.156       .  T
C2028      N2033   1.157       .  T
C2029      N2031   1.156       .  T
C2030      N2032   1.155       .  T
C2035      C2036   1.419   1_554  A
C2035      C2040   1.403       .  A
C2036      C2037   1.408       .  A
C2036      C2041   1.453       .  S
C2037      C2038   1.410       .  A
C2037      C2044   1.452       .  S
C2038      C2039   1.429       .  A
C2039      C2040   1.412   1_556  A
C2040      C2043   1.452       .  S
C2041      N2048   1.157       .  T
C2042      N2047   1.157       .  T
C2043      N2045   1.157       .  T
C2044      N2046   1.157       .  T
