geometry optimzed in LAMMPS
_audit_creation_date              2020-12-01 
_audit_creation_method            'lammps2cif' 
_symmetry_space_group_name_H-M    'P1' 
_symmetry_Int_Tables_number       1 
_symmetry_cell_setting            triclinic 
loop_ 
_symmetry_equiv_pos_as_xyz 
  x,y,z 
_cell_length_a                    27.94298247 
_cell_length_b                    47.32176311374322 
_cell_length_c                    30.999579910839994 
_cell_angle_alpha                 90.16752826987005 
_cell_angle_beta                  111.22164416525577 
_cell_angle_gamma                 89.94190718851128 
loop_ 
_atom_site_label 
_atom_site_type_symbol 
_atom_site_fract_x 
_atom_site_fract_y 
_atom_site_fract_z 
_atom_site_charge 
O1          O  0.68849460  0.55711534  0.81403176    -0.85600
O2          O  0.60127187  0.55270918  0.73877434    -0.82600
C3          C  0.57908792  0.57620393  0.73751466     0.97900
O4          O  0.59776810  0.59874724  0.72812006    -0.82700
O5          O  0.67094386  0.63504872  0.71029863    -0.85300
C6          C  0.70497229  0.64375539  0.74737783     1.02400
O7          O  0.72977568  0.62620271  0.77735691    -0.78100
O8          O  0.76291332  0.57699906  0.82361576    -0.78300
C9          C  0.72938254  0.56871173  0.83966581     1.02400
O10         O  0.74575038  0.52590426  0.76981159    -0.85600
O11         O  0.65721505  0.52692529  0.68773441    -0.82600
C12         C  0.61914784  0.53670737  0.65479081     0.97900
O13         O  0.60350441  0.56162663  0.65690989    -0.82700
O14         O  0.68066047  0.59355339  0.64827453    -0.85300
C15         C  0.72602563  0.60197078  0.65775508     1.02400
O16         O  0.75522306  0.60679110  0.69922729    -0.78100
O17         O  0.78403777  0.55689993  0.74219614    -0.78200
C18         C  0.78306836  0.53272938  0.75810298     1.02300
Cr19       Cr  0.67477372  0.54321914  0.75104641     1.93700
Cr20       Cr  0.64189876  0.59592554  0.68988986     1.93200
Cr21       Cr  0.75303951  0.59050505  0.75881286     1.39100
O22         O  0.69005982  0.57669308  0.73346541    -1.23300
O23         O  0.79265274  0.55580958  0.18958955    -0.85600
O24         O  0.88759673  0.55271590  0.25778239    -0.82600
C25         C  0.90630124  0.57620434  0.25278105     0.97900
O26         O  0.88771944  0.59879344  0.26223677    -0.82700
O27         O  0.81851405  0.63504135  0.28501130    -0.85300
C28         C  0.77796742  0.64166081  0.25172297     1.02400
O29         O  0.74812092  0.62280119  0.22851893    -0.78100
O30         O  0.71805882  0.57187097  0.18839839    -0.78300
C31         C  0.74905033  0.56635812  0.16790094     1.02400
O32         O  0.75008640  0.52266780  0.24376783    -0.85600
O33         O  0.84333165  0.52835683  0.31862233    -0.82600
C34         C  0.88140845  0.54024625  0.34893860     0.97900
O35         O  0.89493002  0.56482796  0.34185126    -0.82700
O36         O  0.82380394  0.59712744  0.35765857    -0.85300
C37         C  0.77902225  0.60415599  0.35469005     1.02400
O38         O  0.74285363  0.60422436  0.31571756    -0.78100
O39         O  0.71267822  0.55141539  0.27602495    -0.78200
C40         C  0.71570090  0.52716186  0.26027227     1.02300
Cr41       Cr  0.81684105  0.54245695  0.25391528     1.93700
Cr42       Cr  0.85194923  0.59736853  0.30805581     1.93200
Cr43       Cr  0.73586614  0.58652441  0.25385980     1.39100
O44         O  0.80122178  0.57568289  0.27195560    -1.23300
O45         O  0.23460061  0.41241944  0.18609851    -0.85600
O46         O  0.23857933  0.37324249  0.25781901    -0.82600
C47         C  0.26861799  0.35717374  0.24829387     0.97900
O48         O  0.31140560  0.36715424  0.25183635    -0.82700
O49         O  0.39143484  0.40380584  0.26457164    -0.85300
C50         C  0.40277916  0.42631818  0.24881160     1.02400
O51         O  0.37658288  0.44837843  0.24607453    -0.78100
O52         O  0.27401242  0.45418498  0.19152622    -0.78300
C53         C  0.25231305  0.43223718  0.16817558     1.02400
O54         O  0.19852707  0.45220086  0.23424387    -0.85600
O55         O  0.23456892  0.41605407  0.31484443    -0.82600
C56         C  0.26575455  0.40041598  0.34621383     0.97900
O57         O  0.30338610  0.38805802  0.33970600    -0.82700
O58         O  0.38498737  0.42310743  0.34962694    -0.85300
C59         C  0.38557307  0.44940318  0.35695580     1.02400
O60         O  0.35871462  0.46628423  0.32611291    -0.78100
O61         O  0.26043060  0.47874560  0.27586848    -0.78200
C62         C  0.21335718  0.47500319  0.25516933     1.02300
Cr63       Cr  0.23256775  0.41457787  0.24983458     1.93700
Cr64       Cr  0.34383650  0.39763402  0.29885310     1.93200
Cr65       Cr  0.31540150  0.45890185  0.26024301     1.39100
O66         O  0.29836318  0.42405599  0.27028381    -1.23300
O67         O  0.25798424  0.40808973  0.81871656    -0.85600
O68         O  0.24952588  0.36877659  0.74668903    -0.82600
C69         C  0.21404708  0.35354456  0.74916389     0.97900
O70         O  0.17167053  0.36477491  0.74438935    -0.82700
O71         O  0.09569707  0.40552294  0.73076768    -0.85300
C72         C  0.09012321  0.42674594  0.75348576     1.02400
O73         O  0.12339296  0.44602993  0.76653750    -0.78100
O74         O  0.22692268  0.45169039  0.81458255    -0.78300
C75         C  0.24563195  0.42934547  0.83779435     1.02400
O76         O  0.29447600  0.44780692  0.77111991    -0.85600
O77         O  0.25950220  0.41246831  0.69107113    -0.82600
C78         C  0.22748387  0.39851409  0.65789740     0.97900
O79         O  0.18882941  0.38626907  0.66233464    -0.82700
O80         O  0.11118055  0.42400915  0.65075932    -0.85300
C81         C  0.10752204  0.45049745  0.64904566     1.02400
O82         O  0.13270147  0.46550952  0.68348429    -0.78100
O83         O  0.23381204  0.47332986  0.72586706    -0.78200
C84         C  0.28079823  0.46953585  0.74684744     1.02300
Cr85       Cr  0.25972707  0.41022177  0.75524338     1.93700
Cr86       Cr  0.14637411  0.39705900  0.70051453     1.93200
Cr87       Cr  0.18095015  0.45619981  0.74697268     1.39100
O88         O  0.19435191  0.42117925  0.73418746    -1.23300
O89         O  0.73611479  0.90002850  0.31968094    -0.85600
O90         O  0.73136877  0.86205414  0.24929066    -0.82600
C91         C  0.69028063  0.84862908  0.24224308     0.97900
O92         O  0.64831159  0.86187535  0.23079781    -0.82700
O93         O  0.57736486  0.90765541  0.20503052    -0.85300
C94         C  0.57203634  0.92425420  0.23526768     1.02400
O95         O  0.61023434  0.93746811  0.26279020    -0.78100
O96         O  0.71276851  0.94453908  0.31698350    -0.78300
C97         C  0.72694708  0.92162777  0.33954299     1.02400
O98         O  0.78462948  0.94050986  0.28048132    -0.85600
O99         O  0.76106530  0.90599474  0.20252417    -0.82600
C100        C  0.73354793  0.89297005  0.16639092     0.97900
O101        O  0.69151654  0.88143478  0.16395316    -0.82700
O102        O  0.62451658  0.92498913  0.14281926    -0.85300
C103        C  0.61486726  0.95063881  0.14590451     1.02400
O104        O  0.62611371  0.96213676  0.18512672    -0.78100
O105        O  0.72786604  0.96809507  0.23422571    -0.78200
C106        C  0.77424107  0.96295204  0.25706381     1.02300
Cr107      Cr  0.74829321  0.90311662  0.26103793     1.93700
Cr108      Cr  0.63913155  0.89548714  0.18987342     1.93200
Cr109      Cr  0.67071238  0.95034497  0.24885344     1.39100
O110        O  0.68500874  0.91624949  0.23322770    -1.23300
O111        O  0.74702763  0.89960093  0.69632902    -0.85600
O112        O  0.76595545  0.86246545  0.76985682    -0.82600
C113        C  0.80648321  0.84972680  0.77190565     0.97900
O114        O  0.84760928  0.86352422  0.77948973    -0.82700
O115        O  0.91479972  0.91195953  0.79808499    -0.85300
C116        C  0.91266076  0.92594384  0.76257121     1.02400
O117        O  0.86995913  0.93439282  0.73502127    -0.78100
O118        O  0.76646576  0.94411623  0.69496971    -0.78300
C119        C  0.75442867  0.92059044  0.67426402     1.02400
O120        O  0.70774355  0.94050611  0.74556497    -0.85600
O121        O  0.74379624  0.90614130  0.82381348    -0.82600
C122        C  0.77605158  0.89300400  0.85734800     0.97900
O123        O  0.81489531  0.88191861  0.85229941    -0.82700
O124        O  0.87355552  0.92873155  0.86533473    -0.85300
C125        C  0.88576228  0.95331603  0.85837823     1.02400
O126        O  0.87389570  0.96292725  0.81786919    -0.78100
O127        O  0.76941860  0.97007086  0.78101326    -0.78200
C128        C  0.72232699  0.96428571  0.76447869     1.02300
Cr129      Cr  0.74533662  0.90321437  0.75997305     1.93700
Cr130      Cr  0.85898251  0.89785047  0.82004665     1.93200
Cr131      Cr  0.81898514  0.95038292  0.75870928     1.39100
O132        O  0.80819392  0.91716379  0.77961976    -1.23300
O133        O  0.21517410  0.05554438  0.31522778    -0.85600
O134        O  0.11263907  0.06393995  0.26430657    -0.82600
C135        C  0.07280275  0.07434025  0.23454097     0.97900
O136        O  0.07636774  0.08822211  0.20062725    -0.82700
O137        O  0.14164792  0.13627117  0.22673158    -0.85300
C138        C  0.18248708  0.15060998  0.23914972     1.02400
O139        O  0.22527000  0.13851673  0.24707818    -0.78100
O140        O  0.23428351  0.10053609  0.31752309    -0.78300
C141        C  0.22557181  0.07886495  0.33720672     1.02400
O142        O  0.22715958  0.03196126  0.23218829    -0.85600
O143        O  0.12188009  0.03845786  0.18451454    -0.82600
C144        C  0.11583452  0.04916380  0.14552533     0.97900
O145        O  0.13432399  0.07278412  0.14311293    -0.82700
O146        O  0.19016063  0.11938205  0.16283043    -0.85300
C147        C  0.23109896  0.10737549  0.16381538     1.02400
O148        O  0.25951875  0.09498518  0.20007106    -0.78100
O149        O  0.28434349  0.06063430  0.27707345    -0.78200
C150        C  0.27374044  0.03782139  0.25418168     1.02300
Cr151      Cr  0.17070060  0.04982245  0.24799495     1.93700
Cr152      Cr  0.13852741  0.10284006  0.18706770     1.93200
Cr153      Cr  0.24672753  0.09782115  0.25888067     1.39100
O154        O  0.18460276  0.08369147  0.23175787    -1.23300
O155        O  0.26433854  0.05064179  0.68956243    -0.85600
O156        O  0.36678599  0.06222965  0.72830672    -0.82600
C157        C  0.40915624  0.07127032  0.75557412     0.97900
O158        O  0.41069164  0.08608409  0.79026110    -0.82700
O159        O  0.33852524  0.13248962  0.77391450    -0.85300
C160        C  0.29634103  0.14485216  0.76799627     1.02400
O161        O  0.25798343  0.13046889  0.76689646    -0.78100
O162        O  0.24150963  0.09460329  0.69224282    -0.78300
C163        C  0.24894015  0.07392866  0.66927701     1.02400
O164        O  0.27076068  0.02383642  0.77601093    -0.85600
O165        O  0.37490075  0.03286838  0.81165007    -0.82600
C166        C  0.38904002  0.04310856  0.85203824     0.97900
O167        O  0.37485847  0.06721149  0.85932860    -0.82700
O168        O  0.31057416  0.11143395  0.84869254    -0.85300
C169        C  0.27322401  0.09850166  0.85379322     1.02400
O170        O  0.24213569  0.08484691  0.81998062    -0.78100
O171        O  0.20715843  0.05189145  0.73979683    -0.78200
C172        C  0.22333563  0.02854318  0.75893783     1.02300
Cr173      Cr  0.31814850  0.04475614  0.75295608     1.93700
Cr174      Cr  0.35494068  0.09800381  0.81421613     1.93200
Cr175      Cr  0.24163191  0.08958263  0.75591091     1.39100
O176        O  0.30552073  0.07744582  0.77440541    -1.23300
C177        C  0.24074592  0.07703347  0.61894838     0.01100
C178        C  0.20569929  0.09720961  0.59066494     0.03900
C179        C  0.20121103  0.10108393  0.54417454    -0.12100
C180        C  0.23224408  0.08540819  0.52586179     0.23200
C181        C  0.26739800  0.06571984  0.55356580    -0.12700
C182        C  0.27033648  0.06061859  0.59901568     0.04600
C183        C  0.22528272  0.08695789  0.47619137     0.27100
C184        C  0.19329299  0.06701712  0.44555401    -0.13400
C185        C  0.19496081  0.06330377  0.40108607     0.05200
C186        C  0.22712342  0.08076430  0.38583967    -0.09400
C187        C  0.25897727  0.10107113  0.41704951     0.06000
C188        C  0.25768542  0.10413754  0.46184354    -0.13700
Br189      Br  0.31187605  0.04552865  0.52837858    -0.05800
Br190      Br  0.16027852  0.11833903  0.61324084    -0.00200
Br191      Br  0.15392224  0.03309890  0.36338161     0.00300
Br192      Br  0.30237398  0.13083990  0.50504315    -0.04100
Br193      Br  0.31447018  0.03013530  0.63120387     0.00400
Br194      Br  0.15222421  0.12752575  0.50486920    -0.03400
Br195      Br  0.14845133  0.04393605  0.46595323    -0.04300
Br196      Br  0.30923308  0.12272829  0.40165490    -0.00300
C197        C  0.24318371  0.10662544  0.12118991     0.01100
C198        C  0.24641978  0.13193231  0.09853096     0.03900
C199        C  0.24806928  0.13109533  0.05369176    -0.12100
C200        C  0.24871369  0.10490526  0.03214505     0.23200
C201        C  0.24805442  0.07958171  0.05562237    -0.12700
C202        C  0.24496746  0.08039064  0.09989586     0.04600
C203        C  0.25414184  0.10386853  0.98628548     0.27100
C204        C  0.21084860  0.10051568  0.94550668    -0.13400
C205        C  0.21653682  0.09902340  0.90213303     0.05200
C206        C  0.26618390  0.10028956  0.89939818    -0.09400
C207        C  0.30964969  0.10343470  0.94116096     0.06000
C208        C  0.30330460  0.10539852  0.98403955    -0.13700
Br209      Br  0.25088309  0.04376690  0.02657966    -0.05800
Br210      Br  0.25236051  0.16758420  0.13027585    -0.00200
Br211      Br  0.15523162  0.09668445  0.84716564     0.00300
Br212      Br  0.36234579  0.10970896  0.04071401    -0.04100
Br213      Br  0.24126233  0.04533234  0.13012729     0.00400
Br214      Br  0.24897707  0.16575254  0.02138777    -0.03400
Br215      Br  0.14366925  0.09786937  0.94964177    -0.04300
Br216      Br  0.37930591  0.10394527  0.94226583    -0.00300
C217        C  0.08334699  0.03570531  0.10198452     0.01100
C218        C  0.04929972  0.05264213  0.06601208     0.03900
C219        C  0.01508726  0.03977058  0.02613850    -0.12100
C220        C  0.01516458  0.01032409  0.02164509     0.23200
C221        C  0.05025483  0.99351051  0.05601245    -0.12700
C222        C  0.08447372  0.00616832  0.09629986     0.04600
C223        C  0.98053215  0.99721264  0.97899942     0.27100
C224        C  0.93078727  0.98900574  0.97508398    -0.13400
C225        C  0.89830335  0.97618832  0.93410954     0.05200
C226        C  0.91678023  0.97023577  0.89837043    -0.09400
C227        C  0.96705569  0.97812379  0.90318286     0.06000
C228        C  0.99801231  0.99280001  0.94248426    -0.13700
Br229      Br  0.05184696  0.95318933  0.04699719    -0.05800
Br230      Br  0.04549551  0.09342874  0.07105005    -0.00200
Br231      Br  0.82869432  0.96703583  0.92691492     0.00300
Br232      Br  0.06487105  0.00653095  0.94699712    -0.04100
Br233      Br  0.13480690  0.98314956  0.14181456     0.00400
Br234      Br  0.96775369  0.06229993  0.97711235    -0.03400
Br235      Br  0.90797804  0.99489724  0.02619283    -0.05100
Br236      Br  0.99685051  0.96570353  0.85983969    -0.00300
C237        C  0.68366976  0.98569744  0.76497429     0.01100
C238        C  0.66515951  0.98653962  0.80167054     0.03900
C239        C  0.62466844  0.00489052  0.79974657    -0.12100
C240        C  0.60180686  0.02227952  0.76073704     0.23200
C241        C  0.62166245  0.02229695  0.72489949    -0.12700
C242        C  0.66283022  0.00427173  0.72726045     0.04600
C243        C  0.55201120  0.03651031  0.75428260     0.27100
C244        C  0.50711282  0.02008597  0.73973322    -0.13400
C245        C  0.46088185  0.03136819  0.74042816     0.05200
C246        C  0.45742675  0.06041891  0.75101152    -0.09400
C247        C  0.50184189  0.07747396  0.76192389     0.06000
C248        C  0.54932396  0.06531600  0.76506073    -0.13700
Br249      Br  0.58988928  0.04557060  0.67114415    -0.05800
Br250      Br  0.69355335  0.96169641  0.85375203    -0.00200
Br251      Br  0.40563882  0.00499900  0.73299394     0.00300
Br252      Br  0.61106889  0.08771765  0.78547310    -0.04100
Br253      Br  0.68958806  0.00421928  0.67800770     0.00400
Br254      Br  0.59791522  0.00491655  0.84918359    -0.03400
Br255      Br  0.50975245  0.98138430  0.72024416    -0.04300
Br256      Br  0.49766806  0.11752204  0.77163050    -0.00300
C257        C  0.18597377  0.00693170  0.76012049     0.01100
C258        C  0.17782275  0.00179164  0.80162197     0.03900
C259        C  0.13676357  0.98452807  0.80137395    -0.12100
C260        C  0.10426706  0.97190961  0.75977551     0.23200
C261        C  0.11453614  0.97564338  0.71888901    -0.12700
C262        C  0.15453867  0.99367351  0.71878574     0.04600
C263        C  0.05482842  0.95897350  0.75731902     0.27100
C264        C  0.05157800  0.93026192  0.76770697    -0.13400
C265        C  0.00476750  0.91888777  0.76767500     0.05200
C266        C  0.96060867  0.93622632  0.75682055    -0.09400
C267        C  0.96466810  0.96528991  0.74676498     0.06000
C268        C  0.01119980  0.97630120  0.74631088    -0.13700
Br269      Br  0.07196390  0.95706262  0.66266518    -0.05800
Br270      Br  0.21973107  0.02066825  0.85790163    -0.00200
Br271      Br  0.00231003  0.87985344  0.78437201     0.00300
Br272      Br  0.01657625  0.01601147  0.73371015    -0.04100
Br273      Br  0.16445890  0.00149738  0.66152311     0.00400
Br274      Br  0.12294518  0.97987286  0.85741694    -0.03400
Br275      Br  0.11206152  0.90695561  0.78318369    -0.04300
Br276      Br  0.91106170  0.99215245  0.74306768    -0.00300
C277        C  0.42588753  0.02811226  0.89152434     0.01100
C278        C  0.47517576  0.03987713  0.91362060     0.03900
C279        C  0.50890685  0.02811707  0.95485332    -0.12100
C280        C  0.49300620  0.00500847  0.97462754     0.23200
C281        C  0.44441252  0.99267631  0.95208037    -0.12700
C282        C  0.41098893  0.00405381  0.91015449     0.04600
C283        C  0.52784593  0.99314811  0.01871926     0.27100
C284        C  0.55981500  0.97052826  0.01797650    -0.13400
C285        C  0.58948529  0.95719371  0.05939527     0.05200
C286        C  0.58794508  0.96682415  0.10253291    -0.09400
C287        C  0.55732389  0.99086444  0.10283154     0.06000
C288        C  0.52753847  0.00384474  0.06090116    -0.13700
Br289      Br  0.42374549  0.96051720  0.97939748    -0.05800
Br290      Br  0.49689704  0.07215093  0.88752609    -0.00200
Br291      Br  0.63086021  0.92556933  0.05435966     0.00300
Br292      Br  0.48492749  0.03612435  0.06054665    -0.04100
Br293      Br  0.34449341  0.98730724  0.87937342     0.00400
Br294      Br  0.57692900  0.04356764  0.98452314    -0.03400
Br295      Br  0.56192350  0.95774664  0.95926250    -0.04300
Br296      Br  0.55171991  0.00570081  0.15911564    -0.00300
C297        C  0.76993557  0.89015948  0.90308489     0.01100
C298        C  0.81392775  0.88878162  0.94474148     0.03900
C299        C  0.80821623  0.88808034  0.98790939    -0.12100
C300        C  0.75919926  0.88927707  0.99047719     0.23200
C301        C  0.71531323  0.88906915  0.94963320    -0.12700
C302        C  0.72050099  0.88889520  0.90602199     0.04600
C303        C  0.75468907  0.89016168  0.03667705     0.27100
C304        C  0.74996273  0.86484209  0.05851551    -0.13400
C305        C  0.74819298  0.86554541  0.10325074     0.05200
C306        C  0.74890091  0.89163327  0.12554291    -0.09400
C307        C  0.75742270  0.91683671  0.10504393     0.06000
C308        C  0.76041256  0.91603748  0.06068712    -0.13700
Br309      Br  0.64804902  0.88843410  0.95365569    -0.05800
Br310      Br  0.88346053  0.88818576  0.94543962    -0.00200
Br311      Br  0.74933600  0.83072066  0.13563853     0.00300
Br312      Br  0.77132998  0.95045625  0.03222648    -0.04100
Br313      Br  0.65982514  0.88415456  0.85108113     0.00400
Br314      Br  0.86772680  0.88508976  0.04447526    -0.03400
Br315      Br  0.74654235  0.82921653  0.02711818    -0.04300
Br316      Br  0.76089462  0.95284314  0.13557426    -0.00300
C317        C  0.73329708  0.92003018  0.38955223     0.01100
C318        C  0.70119183  0.93594187  0.40716944     0.03900
C319        C  0.70364973  0.93176936  0.45288406    -0.12100
C320        C  0.73925305  0.91269839  0.48218289     0.23200
C321        C  0.77304273  0.89790597  0.46592967    -0.12700
C322        C  0.77049318  0.90164503  0.42003057     0.04600
C323        C  0.74642885  0.91221002  0.53207054     0.27100
C324        C  0.77822799  0.93266257  0.56129463    -0.13400
C325        C  0.77982871  0.93588187  0.60685902     0.05200
C326        C  0.75036851  0.91792372  0.62465939    -0.09400
C327        C  0.71914779  0.89680576  0.59488739     0.06000
C328        C  0.71771944  0.89391720  0.54901293    -0.13700
Br329      Br  0.82461492  0.87361828  0.50775369    -0.05800
Br330      Br  0.65488508  0.96465278  0.37088851    -0.00200
Br331      Br  0.82296538  0.96574863  0.64250803     0.00300
Br332      Br  0.67613395  0.86507377  0.50862402    -0.04100
Br333      Br  0.82263710  0.88398035  0.40169549     0.00400
Br334      Br  0.65949900  0.95310526  0.47676537    -0.03400
Br335      Br  0.81929013  0.95675307  0.53773663    -0.04300
Br336      Br  0.67447249  0.87307027  0.61429738    -0.00300
C337        C  0.02163039  0.06704642  0.23762025     0.01100
C338        C  0.98207139  0.05478001  0.19937646     0.03900
C339        C  0.94009894  0.04095404  0.20529798    -0.12100
C340        C  0.93714060  0.03865763  0.24951184     0.23200
C341        C  0.97381320  0.05291970  0.28703743    -0.12700
C342        C  0.01519445  0.06750443  0.28089651     0.04600
C343        C  0.89676200  0.02000292  0.25597128     0.27100
C344        C  0.84797585  0.03080594  0.25072392    -0.13400
C345        C  0.80810183  0.01254143  0.25147142     0.05200
C346        C  0.81629939  0.98284758  0.25667791    -0.09400
C347        C  0.86522716  0.97214877  0.26052060     0.06000
C348        C  0.90532648  0.99066673  0.26162155    -0.13700
Br349      Br  0.96794141  0.05176536  0.34704076    -0.05800
Br350      Br  0.98547144  0.05484526  0.13875499    -0.00200
Br351      Br  0.74254065  0.02899498  0.24490390     0.00300
Br352      Br  0.97239770  0.97579387  0.26961758    -0.04100
Br353      Br  0.06165114  0.08943236  0.33115668     0.00400
Br354      Br  0.88693476  0.02393976  0.15289457    -0.03400
Br355      Br  0.83579902  0.07084766  0.24113180    -0.04300
Br356      Br  0.87686777  0.93196693  0.25854399    -0.00300
C357        C  0.31586107  0.01814521  0.25335384     0.01100
C358        C  0.31012328  0.98839839  0.25462300     0.03900
C359        C  0.34860695  0.96998099  0.25116130    -0.12100
C360        C  0.39401853  0.98085241  0.24759507     0.23200
C361        C  0.40071875  0.01040082  0.24788076    -0.12700
C362        C  0.36205035  0.02892837  0.25046219     0.04600
C363        C  0.43482340  0.96147410  0.24324177     0.27100
C364        C  0.47142109  0.94895630  0.28277224    -0.13400
C365        C  0.51288190  0.93327074  0.27902628     0.05200
C366        C  0.51988336  0.93103409  0.23627258    -0.09400
C367        C  0.48009230  0.94087236  0.19592585     0.06000
C368        C  0.43815413  0.95624039  0.19954385    -0.13700
Br369      Br  0.46352196  0.02549497  0.24460244    -0.05800
Br370      Br  0.25130002  0.97243381  0.26438110    -0.00200
Br371      Br  0.55815597  0.91282158  0.33161215     0.00300
Br372      Br  0.38612836  0.97141717  0.14477895    -0.04100
Br373      Br  0.37282450  0.06912316  0.24809975     0.00400
Br374      Br  0.33927527  0.92960529  0.25113507    -0.03400
Br375      Br  0.46619837  0.95449086  0.34252042    -0.04300
Br376      Br  0.48269089  0.93401270  0.13542450    -0.00300
C377        C  0.29033799  0.17623046  0.76617319     0.01100
C378        C  0.26269628  0.18912635  0.79147694     0.03900
C379        C  0.24825682  0.21765952  0.78457613    -0.12100
C380        C  0.26464193  0.23450957  0.75536771     0.23200
C381        C  0.29467082  0.22236556  0.73198515    -0.12700
C382        C  0.30659673  0.19314703  0.73656904     0.04600
C383        C  0.25226455  0.26528433  0.75224341     0.27100
C384        C  0.20714755  0.27554882  0.71787461    -0.13400
C385        C  0.19202159  0.30396887  0.71892900     0.05200
C386        C  0.22276741  0.32253453  0.75375717    -0.09400
C387        C  0.26772357  0.31205876  0.78827659     0.06000
C388        C  0.28229084  0.28361285  0.78753139    -0.13700
Br389      Br  0.31890192  0.24584904  0.69351970    -0.05800
Br390      Br  0.24657723  0.16875073  0.83839160    -0.00200
Br391      Br  0.13024565  0.31756769  0.67141023     0.00300
Br392      Br  0.34358978  0.26945659  0.83501580    -0.04100
Br393      Br  0.34282856  0.17621511  0.70065716     0.00400
Br394      Br  0.20505717  0.23386961  0.81491710    -0.03400
Br395      Br  0.16674603  0.25063353  0.66890816    -0.04300
Br396      Br  0.30881485  0.33651478  0.83772952    -0.00300
C397        C  0.18144448  0.18185736  0.23836560     0.01100
C398        C  0.20487274  0.19720147  0.27960773     0.03900
C399        C  0.21690654  0.22599167  0.27800158    -0.12100
C400        C  0.20775835  0.23923321  0.23503202     0.23200
C401        C  0.18235597  0.22420539  0.19370010    -0.12700
C402        C  0.16735393  0.19594580  0.19545491     0.04600
C403        C  0.22320219  0.26923137  0.23346795     0.27100
C404        C  0.18608848  0.29067262  0.22394282    -0.13400
C405        C  0.20040302  0.31914660  0.22361334     0.05200
C406        C  0.25319657  0.32684196  0.23716365    -0.09400
C407        C  0.29022517  0.30496123  0.24518689     0.06000
C408        C  0.27486981  0.27634676  0.24234013    -0.13700
Br409      Br  0.17050972  0.24194208  0.13470442    -0.05800
Br410      Br  0.21960035  0.17866723  0.33817356    -0.00200
Br411      Br  0.14565411  0.34683816  0.20264682     0.00300
Br412      Br  0.32484474  0.24653584  0.25195534    -0.04100
Br413      Br  0.12789894  0.17656853  0.13890385     0.00400
Br414      Br  0.24653656  0.24730468  0.33458322    -0.03400
Br415      Br  0.11557061  0.28087492  0.21367927    -0.04300
Br416      Br  0.36241045  0.31324215  0.26230657    -0.00300
C417        C  0.24945549  0.42975748  0.11924449     0.01100
C418        C  0.28204761  0.41072454  0.10768449     0.03900
C419        C  0.28463932  0.41089948  0.06296983    -0.12100
C420        C  0.25306404  0.42923041  0.02855597     0.23200
C421        C  0.21926262  0.44761221  0.03965923    -0.12700
C422        C  0.21776056  0.44798750  0.08480845     0.04600
C423        C  0.25405431  0.42846281  0.98039120     0.27100
C424        C  0.28036866  0.44942430  0.96532187    -0.13400
C425        C  0.27844261  0.44958471  0.91904654     0.05200
C426        C  0.25167745  0.42816128  0.88770082    -0.09400
C427        C  0.22729406  0.40648214  0.90348707     0.06000
C428        C  0.22807308  0.40681760  0.94933250    -0.13700
Br429      Br  0.17489739  0.47231682  0.99281601    -0.05800
Br430      Br  0.32386045  0.38445126  0.15314420    -0.00200
Br431      Br  0.31354962  0.47890120  0.89894971     0.00300
Br432      Br  0.19228885  0.37788234  0.96946304    -0.04100
Br433      Br  0.17061855  0.47258860  0.09924575     0.00400
Br434      Br  0.33267645  0.38658257  0.04901182    -0.03400
Br435      Br  0.31981688  0.47766048  0.00858663    -0.04300
Br436      Br  0.18921290  0.37727760  0.86139355    -0.00300
C437        C  0.23392796  0.39646436  0.61252059     0.01100
C438        C  0.23422610  0.42126376  0.58736868     0.03900
C439        C  0.23415732  0.41937628  0.54197867    -0.12100
C440        C  0.23603579  0.39278664  0.52201038     0.23200
C441        C  0.23663292  0.36799556  0.54730321    -0.12700
C442        C  0.23455476  0.36979897  0.59203316     0.04600
C443        C  0.24351598  0.39141856  0.47681348     0.27100
C444        C  0.20191519  0.38718981  0.43483378    -0.13400
C445        C  0.20926316  0.38928491  0.39212580     0.05200
C446        C  0.25832087  0.39578968  0.39116118    -0.09400
C447        C  0.30064713  0.39722049  0.43379328     0.06000
C448        C  0.29300171  0.39553919  0.47613488    -0.13700
Br449      Br  0.24185803  0.33162791  0.52106597    -0.05800
Br450      Br  0.23225276  0.45798374  0.61396739    -0.00200
Br451      Br  0.15317788  0.38044052  0.33539872     0.00300
Br452      Br  0.35057332  0.39916096  0.53404578    -0.04100
Br453      Br  0.23466422  0.33562122  0.62586925     0.00400
Br454      Br  0.23139643  0.45327476  0.50663193    -0.03400
Br455      Br  0.13519242  0.37819187  0.43619000    -0.04300
Br456      Br  0.37005886  0.40110438  0.43622559    -0.00300
C457        C  0.69265610  0.81725131  0.24200992     0.01100
C458        C  0.72442183  0.80278293  0.28182121     0.03900
C459        C  0.73714051  0.77417121  0.27905468    -0.12100
C460        C  0.71987609  0.75999994  0.23608948     0.23200
C461        C  0.68708057  0.77414673  0.19639099    -0.12700
C462        C  0.67232606  0.80241141  0.19959372     0.04600
C463        C  0.73291619  0.72954046  0.23400731     0.27100
C464        C  0.78058734  0.72128553  0.23181420    -0.13400
C465        C  0.79521001  0.69248662  0.23624899     0.05200
C466        C  0.76201824  0.67177457  0.24257976    -0.09400
C467        C  0.71324696  0.68011151  0.24253570     0.06000
C468        C  0.69895247  0.70878734  0.23829348    -0.13700
Br469      Br  0.66387440  0.75496672  0.13741110    -0.05800
Br470      Br  0.74975113  0.82208553  0.34050421    -0.00200
Br471      Br  0.86002197  0.68136545  0.23253044     0.00300
Br472      Br  0.63337091  0.72002587  0.24047941    -0.04100
Br473      Br  0.62560962  0.82101186  0.14531499     0.00400
Br474      Br  0.77824329  0.75412260  0.33419735    -0.03400
Br475      Br  0.82589971  0.74961329  0.22331924    -0.04300
Br476      Br  0.66656317  0.65279121  0.25179737    -0.00300
C477        C  0.07157084  0.46392379  0.60586927     0.01100
C478        C  0.06167280  0.45094355  0.56203480     0.03900
C479        C  0.02600885  0.46293572  0.52174085    -0.12100
C480        C  0.00140809  0.48847012  0.52410162     0.23200
C481        C  0.01026972  0.50139165  0.56721670    -0.12700
C482        C  0.04437454  0.48897126  0.60811292     0.04600
C483        C  0.96965084  0.50262403  0.48043723     0.27100
C484        C  0.99418585  0.51846596  0.45617846    -0.13400
C485        C  0.96573585  0.52954689  0.41236160     0.05200
C486        C  0.91174366  0.52578344  0.39296927    -0.09400
C487        C  0.88716787  0.51003227  0.41782371     0.06000
C488        C  0.91621464  0.49832340  0.46124701    -0.13700
Br489      Br  0.97547801  0.53628287  0.56984241    -0.05800
Br490      Br  0.09774379  0.41738083  0.55499493    -0.00200
Br491      Br  0.00245674  0.54826378  0.37843342     0.00300
Br492      Br  0.88319070  0.47621218  0.49472544    -0.04100
Br493      Br  0.05042599  0.50592819  0.66673951     0.00400
Br494      Br  0.01068583  0.44463077  0.46236099    -0.03400
Br495      Br  0.06749626  0.52460315  0.48324593    -0.04300
Br496      Br  0.81362689  0.50513473  0.39403341    -0.00300
C497        C  0.67720819  0.50439444  0.25890969     0.01100
C498        C  0.65248040  0.50420354  0.29168229     0.03900
C499        C  0.61090379  0.48579095  0.28621635    -0.12100
C500        C  0.59478443  0.46627053  0.24939031     0.23200
C501        C  0.62253027  0.46406742  0.21966547    -0.12700
C502        C  0.66294463  0.48315189  0.22370759     0.04600
C503        C  0.54569965  0.45031835  0.23971361     0.27100
C504        C  0.54383728  0.42560667  0.26441151    -0.13400
C505        C  0.49600852  0.41449811  0.26233471     0.05200
C506        C  0.44983419  0.42873204  0.23644176    -0.09400
C507        C  0.45203262  0.45018521  0.20546166     0.06000
C508        C  0.49965444  0.46139277  0.20795481    -0.13700
Br509      Br  0.60386254  0.43494262  0.17270032    -0.05800
Br510      Br  0.67655214  0.52772894  0.34619120    -0.00200
Br511      Br  0.49488616  0.38011000  0.29527267     0.00300
Br512      Br  0.50179844  0.49332886  0.17011488    -0.04100
Br513      Br  0.69588396  0.48004062  0.17879749     0.00400
Br514      Br  0.57449845  0.48771985  0.32860985    -0.03400
Br515      Br  0.60705431  0.40794352  0.30278763    -0.04300
Br516      Br  0.38975754  0.46405714  0.15874010    -0.00300
C517        C  0.95251013  0.57533420  0.23933329     0.01100
C518        C  0.00012750  0.58602709  0.26939972     0.03900
C519        C  0.04654071  0.57429280  0.26879283    -0.12100
C520        C  0.04549559  0.55229697  0.23758667     0.23200
C521        C  0.99833065  0.54484526  0.20307647    -0.12700
C522        C  0.95218969  0.55666951  0.20351622     0.04600
C523        C  0.09193865  0.53431299  0.24494695     0.27100
C524        C  0.12618113  0.53982228  0.22186019    -0.13400
C525        C  0.16778662  0.52130397  0.22716172     0.05200
C526        C  0.17488831  0.49690291  0.25493997    -0.09400
C527        C  0.14177508  0.49212623  0.27937608     0.06000
C528        C  0.10044748  0.51057569  0.27420271    -0.13700
Br529      Br  0.99659230  0.51649058  0.15768563    -0.05800
Br530      Br  0.00198571  0.61528496  0.31330486    -0.00200
Br531      Br  0.21440046  0.52892594  0.19555721     0.00300
Br532      Br  0.05399448  0.50270392  0.30601414    -0.04100
Br533      Br  0.88803605  0.54661370  0.15559423     0.00400
Br534      Br  0.11157279  0.58658401  0.31293398    -0.03400
Br535      Br  0.11471665  0.57213081  0.18170942    -0.04300
Br536      Br  0.15362942  0.46061761  0.32110824    -0.00300
C537        C  0.72050251  0.67413259  0.75350701     0.01100
C538        C  0.68372861  0.69606348  0.74358719     0.03900
C539        C  0.69954008  0.72466515  0.74761761    -0.12100
C540        C  0.75199996  0.73158118  0.76033519     0.23200
C541        C  0.78871337  0.70981489  0.77065791    -0.12700
C542        C  0.77327600  0.68131215  0.76716580     0.04600
C543        C  0.76925737  0.76165346  0.76342027     0.27100
C544        C  0.76990057  0.77599642  0.72373944    -0.13400
C545        C  0.78770070  0.80418663  0.72716867     0.05200
C546        C  0.80445988  0.81832963  0.77013467    -0.09400
C547        C  0.80664532  0.80326960  0.81016504     0.06000
C548        C  0.78845579  0.77528946  0.80673679    -0.13700
Br549      Br  0.86069024  0.71931687  0.78962514    -0.05800
Br550      Br  0.61180517  0.68707860  0.72557994    -0.00200
Br551      Br  0.78987215  0.82351682  0.67333536     0.00300
Br552      Br  0.78818714  0.75579572  0.86132984    -0.04100
Br553      Br  0.82539596  0.65246208  0.77814049     0.00400
Br554      Br  0.64966604  0.75455792  0.73689815    -0.03400
Br555      Br  0.74485031  0.75715167  0.66455141    -0.04300
Br556      Br  0.83512804  0.82055972  0.87033916    -0.00300
C557        C  0.58973420  0.51933664  0.61385718     0.01100
C558        C  0.58089903  0.53010087  0.56920295     0.03900
C559        C  0.54401936  0.51768724  0.53012090    -0.12100
C560        C  0.51694956  0.49360023  0.53484734     0.23200
C561        C  0.52693313  0.48192605  0.57907777    -0.12700
C562        C  0.56339963  0.49473234  0.61860061     0.04600
C563        C  0.48106490  0.47980223  0.49231310     0.27100
C564        C  0.42979507  0.48902311  0.47219591    -0.13400
C565        C  0.39850835  0.47930810  0.42785958     0.05200
C566        C  0.41851686  0.46028226  0.40331637    -0.09400
C567        C  0.46954136  0.45037873  0.42455664     0.06000
C568        C  0.50049533  0.46011140  0.46878470    -0.13700
Br569      Br  0.48920776  0.44904659  0.58525777    -0.05800
Br570      Br  0.62096873  0.56113664  0.56066470    -0.00200
Br571      Br  0.32770704  0.49130205  0.40202893     0.00300
Br572      Br  0.57071523  0.44740552  0.49688013    -0.04100
Br573      Br  0.57590119  0.47904322  0.67906776     0.00400
Br574      Br  0.52947762  0.53412250  0.46969929    -0.03400
Br575      Br  0.40308555  0.51541666  0.50539287    -0.04300
Br576      Br  0.49892802  0.42457193  0.39269642    -0.00300
C577        C  0.74408942  0.60642850  0.61903079     0.01100
C578        C  0.73837509  0.63305924  0.59753435     0.03900
C579        C  0.74727480  0.63612969  0.55580430    -0.12100
C580        C  0.76039796  0.61237215  0.53475951     0.23200
C581        C  0.76859370  0.58606399  0.55753479    -0.12700
C582        C  0.76058000  0.58311943  0.59961536     0.04600
C583        C  0.76310008  0.61442423  0.48769462     0.27100
C584        C  0.71972611  0.60789825  0.44831476    -0.13400
C585        C  0.72294631  0.60741174  0.40387114     0.05200
C586        C  0.77115274  0.61160149  0.39893540    -0.09400
C587        C  0.81326934  0.62079514  0.43834227     0.06000
C588        C  0.80931783  0.62188240  0.48240764    -0.13700
Br589      Br  0.78957785  0.55391870  0.53020700    -0.05800
Br590      Br  0.71559256  0.66488863  0.62411043    -0.00200
Br591      Br  0.66057514  0.60188726  0.35103456     0.00300
Br592      Br  0.86765269  0.63267313  0.53625175    -0.04100
Br593      Br  0.77035623  0.54687117  0.62991907     0.00400
Br594      Br  0.74086972  0.67270983  0.52707609    -0.03400
Br595      Br  0.65609096  0.59820451  0.45590387    -0.04300
Br596      Br  0.87655330  0.63394516  0.43304414    -0.00300
C597        C  0.73652892  0.57272208  0.88891986     0.01100
C598        C  0.75797536  0.55099698  0.92113169     0.03900
C599        C  0.75718546  0.55298814  0.96625959    -0.12100
C600        C  0.73254493  0.57598407  0.97860964     0.23200
C601        C  0.71098150  0.59766747  0.94639715    -0.12700
C602        C  0.71380873  0.59629093  0.90199048     0.04600
C603        C  0.73035395  0.57740301  0.02581881     0.27100
C604        C  0.69289883  0.56201391  0.03660728    -0.13400
C605        C  0.69615980  0.55975808  0.08300779     0.05200
C606        C  0.73646945  0.57327531  0.11842467    -0.09400
C607        C  0.76950649  0.59164805  0.10653699     0.06000
C608        C  0.76730936  0.59319479  0.06060798    -0.13700
Br609      Br  0.67602673  0.62871732  0.96277507    -0.05800
Br610      Br  0.78599154  0.51788128  0.90258504    -0.00200
Br611      Br  0.64648145  0.53771030  0.09796293     0.00300
Br612      Br  0.81610619  0.61616564  0.04555940    -0.04100
Br613      Br  0.68461858  0.62627248  0.85838896     0.00400
Br614      Br  0.78953380  0.52416751  0.01135041    -0.03400
Br615      Br  0.63782259  0.54378449  0.98770718    -0.04300
Br616      Br  0.81672557  0.61556747  0.15308337    -0.00300
C617        C  0.82698693  0.51306964  0.76375140     0.01100
C618        C  0.81999693  0.48337984  0.75897818     0.03900
C619        C  0.86203542  0.46551495  0.76327544    -0.12100
C620        C  0.90998092  0.47709934  0.76757920     0.23200
C621        C  0.91693567  0.50658607  0.77147017    -0.12700
C622        C  0.87683475  0.52428213  0.77247160     0.04600
C623        C  0.95270916  0.45864649  0.76605388     0.27100
C624        C  0.99618225  0.45396692  0.80639768    -0.13400
C625        C  0.04027713  0.44092706  0.80335763     0.05200
C626        C  0.04070672  0.43167851  0.76012166    -0.09400
C627        C  0.99519929  0.43390017  0.72051850     0.06000
C628        C  0.95185795  0.44785143  0.72334781    -0.13700
Br629      Br  0.98117286  0.52295875  0.77361192    -0.05800
Br630      Br  0.75275809  0.46671734  0.74294777    -0.00200
Br631      Br  0.10060526  0.43655038  0.85835332     0.00300
Br632      Br  0.89288665  0.45452929  0.66771643    -0.04100
Br633      Br  0.89272726  0.56357792  0.78913709     0.00400
Br634      Br  0.85436976  0.42499915  0.76312776    -0.03400
Br635      Br  0.99616566  0.46701168  0.86543864    -0.04300
Br636      Br  0.99313366  0.42065453  0.66083971    -0.00300
C637        C  0.52831617  0.57531059  0.74229062     0.01100
C638        C  0.48388025  0.57522184  0.70181529     0.03900
C639        C  0.43887730  0.56160073  0.70156945    -0.12100
C640        C  0.43754220  0.54913450  0.74241367     0.23200
C641        C  0.47970957  0.55264496  0.78421843    -0.12700
C642        C  0.52512106  0.56544065  0.78404015     0.04600
C643        C  0.39556389  0.52917132  0.74062978     0.27100
C644        C  0.34867368  0.53903578  0.74226493    -0.13400
C645        C  0.31141048  0.51969219  0.74501025     0.05200
C646        C  0.31962907  0.49020588  0.74355325    -0.09400
C647        C  0.36575973  0.48049354  0.73943121     0.06000
C648        C  0.40386978  0.49985674  0.73909240    -0.13700
Br649      Br  0.47687335  0.53728876  0.84086651    -0.05800
Br650      Br  0.48647981  0.59127371  0.64561084    -0.00200
Br651      Br  0.25118972  0.53396118  0.75447058     0.00300
Br652      Br  0.46822020  0.48621677  0.73692804    -0.04100
Br653      Br  0.58431599  0.56769517  0.84045048     0.00400
Br654      Br  0.38112612  0.55738153  0.64434493    -0.03400
Br655      Br  0.33580927  0.57912875  0.74094959    -0.04300
Br656      Br  0.37666293  0.44073982  0.73188200    -0.00300
loop_ 
_geom_bond_atom_site_label_1 
_geom_bond_atom_site_label_2 
_geom_bond_distance 
_geom_bond_site_symmetry_2 
_ccdc_geom_bond_type 
O1          Cr19   1.960       .  S
O1            C9   1.257       .  A
O2          Cr19   2.000       .  S
O2            C3   1.266       .  A
C3            O4   1.268       .  A
C3          C637   1.479       .  S
O4          Cr20   2.000       .  S
O5          Cr20   2.028       .  S
O5            C6   1.266       .  A
C6            O7   1.253       .  A
C6          C537   1.494       .  S
O7          Cr21   1.967       .  S
O8          Cr21   2.031       .  S
O8            C9   1.272       .  A
C9          C597   1.478       .  S
O10         Cr19   2.027       .  S
O10          C18   1.264       .  A
O11         Cr19   1.995       .  S
O11          C12   1.267       .  A
C12          O13   1.267       .  A
C12         C557   1.484       .  S
O13         Cr20   2.008       .  S
O14         Cr20   1.965       .  S
O14          C15   1.258       .  A
C15          O16   1.269       .  A
C15         C577   1.477       .  S
O16         Cr21   2.025       .  S
O17         Cr21   1.965       .  S
O17          C18   1.251       .  A
C18         C617   1.498       .  S
Cr19         O22   1.779       .  S
Cr20         O22   1.776       .  S
Cr21         O22   1.772       .  S
O23         Cr41   1.965       .  S
O23          C31   1.262       .  A
O24         Cr41   1.997       .  S
O24          C25   1.262       .  A
C25          O26   1.267       .  A
C25         C517   1.494       .  S
O26         Cr42   2.012       .  S
O27         Cr42   2.020       .  S
O27          C28   1.265       .  A
C28          O29   1.254       .  A
C28         C466   1.490       .  S
O29         Cr43   1.971       .  S
O30         Cr43   2.027       .  S
O30          C31   1.272       .  A
C31         C606   1.482       .  S
O32         Cr41   2.008       .  S
O32          C40   1.259       .  A
O33         Cr41   1.987       .  S
O33          C34   1.267       .  A
C34          O35   1.268       .  A
C34         C486   1.489       .  S
O35         Cr42   2.001       .  S
O36         Cr42   1.964       .  S
O36          C37   1.265       .  A
C37          O38   1.264       .  A
C37         C586   1.506       .  S
O38         Cr43   2.034       .  S
O39         Cr43   1.996       .  S
O39          C40   1.261       .  A
C40         C497   1.513       .  S
Cr41         O44   1.774       .  S
Cr42         O44   1.778       .  S
Cr43         O44   1.781       .  S
O45         Cr63   1.999       .  S
O45          C53   1.279       .  A
O46         Cr63   1.972       .  S
O46          C47   1.244       .  A
C47          O48   1.253       .  A
C47         C406   1.502       .  S
O48         Cr64   2.015       .  S
O49         Cr64   2.002       .  S
O49          C50   1.261       .  A
C50          O51   1.260       .  A
C50         C506   1.502       .  S
O51         Cr65   1.976       .  S
O52         Cr65   2.035       .  S
O52          C53   1.284       .  A
C53         C417   1.494       .  S
O54         Cr63   1.994       .  S
O54          C62   1.249       .  A
O55         Cr63   1.997       .  S
O55          C56   1.281       .  A
C56          O57   1.281       .  A
C56         C446   1.498       .  S
O57         Cr64   2.032       .  S
O58         Cr64   1.983       .  S
O58          C59   1.263       .  A
C59          O60   1.265       .  A
C59         C566   1.489       .  S
O60         Cr65   1.991       .  S
O61         Cr65   2.002       .  S
O61          C62   1.250       .  A
C62         C526   1.491       .  S
Cr63         O66   1.772       .  S
Cr64         O66   1.775       .  S
Cr65         O66   1.776       .  S
O67         Cr85   1.989       .  S
O67          C75   1.274       .  A
O68         Cr85   1.985       .  S
O68          C69   1.251       .  A
C69          O70   1.257       .  A
C69         C386   1.486       .  S
O70         Cr86   1.999       .  S
O71         Cr86   2.001       .  S
O71          C72   1.266       .  A
C72          O73   1.260       .  A
C72         C626   1.486       .  S
O73         Cr87   1.974       .  S
O74         Cr87   2.035       .  S
O74          C75   1.281       .  A
C75         C426   1.495       .  S
O76         Cr85   2.000       .  S
O76          C84   1.251       .  A
O77         Cr85   1.990       .  S
O77          C78   1.275       .  A
C78          O79   1.277       .  A
C78         C437   1.484       .  S
O79         Cr86   2.020       .  S
O80         Cr86   1.971       .  S
O80          C81   1.257       .  A
C81          O82   1.262       .  A
C81         C477   1.495       .  S
O82         Cr87   1.992       .  S
O83         Cr87   1.993       .  S
O83          C84   1.249       .  A
C84         C646   1.492       .  S
Cr85         O88   1.780       .  S
Cr86         O88   1.781       .  S
Cr87         O88   1.774       .  S
O89        Cr107   1.973       .  S
O89          C97   1.265       .  A
O90        Cr107   2.001       .  S
O90          C91   1.260       .  A
C91          O92   1.262       .  A
C91         C457   1.486       .  S
O92        Cr108   1.995       .  S
O93        Cr108   2.028       .  S
O93          C94   1.271       .  A
C94          O95   1.264       .  A
C94         C366   1.503       .  S
O95        Cr109   1.986       .  S
O96        Cr109   2.031       .  S
O96          C97   1.275       .  A
C97         C317   1.497       .  S
O98        Cr107   2.020       .  S
O98         C106   1.261       .  A
O99        Cr107   1.976       .  S
O99         C100   1.265       .  A
C100        O101   1.273       .  A
C100        C306   1.478       .  S
O101       Cr108   2.019       .  S
O102       Cr108   1.955       .  S
O102        C103   1.254       .  A
C103        O104   1.262       .  A
C103        C286   1.494       .  S
O104       Cr109   1.997       .  S
O105       Cr109   1.998       .  S
O105        C106   1.255       .  A
C106        C346   1.510       .  S
Cr107       O110   1.776       .  S
Cr108       O110   1.778       .  S
Cr109       O110   1.770       .  S
O111       Cr129   1.997       .  S
O111        C119   1.266       .  A
O112       Cr129   2.004       .  S
O112        C113   1.264       .  A
C113        O114   1.268       .  A
C113        C546   1.487       .  S
O114       Cr130   2.005       .  S
O115       Cr130   2.029       .  S
O115        C116   1.269       .  A
C116        O117   1.255       .  A
C116        C266   1.496       .  S
O117       Cr131   1.973       .  S
O118       Cr131   2.011       .  S
O118        C119   1.267       .  A
C119        C326   1.505       .  S
O120       Cr129   2.019       .  S
O120        C128   1.265       .  A
O121       Cr129   1.999       .  S
O121        C122   1.266       .  A
C122        O123   1.265       .  A
C122        C297   1.495       .  S
O123       Cr130   1.996       .  S
O124       Cr130   1.962       .  S
O124        C125   1.254       .  A
C125        O126   1.263       .  A
C125        C226   1.465       .  S
O126       Cr131   2.007       .  S
O127       Cr131   1.988       .  S
O127        C128   1.257       .  A
C128        C237   1.484       .  S
Cr129       O132   1.766       .  S
Cr130       O132   1.771       .  S
Cr131       O132   1.769       .  S
O133       Cr151   2.021       .  S
O133        C141   1.273       .  A
O134       Cr151   1.981       .  S
O134        C135   1.261       .  A
C135        O136   1.275       .  A
C135        C337   1.508       .  S
O136       Cr152   2.051       .  S
O137       Cr152   1.983       .  S
O137        C138   1.262       .  A
C138        O139   1.266       .  A
C138        C397   1.479       .  S
O139       Cr153   2.011       .  S
O140       Cr153   1.974       .  S
O140        C141   1.263       .  A
C141        C186   1.495       .  S
O142       Cr151   1.999       .  S
O142        C150   1.262       .  A
O143       Cr151   2.019       .  S
O143        C144   1.266       .  A
C144        O145   1.246       .  A
C144        C217   1.470       .  S
O145       Cr152   1.941       .  S
O146       Cr152   2.012       .  S
O146        C147   1.267       .  A
C147        O148   1.263       .  A
C147        C197   1.478       .  S
O148       Cr153   1.985       .  S
O149       Cr153   2.023       .  S
O149        C150   1.265       .  A
C150        C357   1.507       .  S
Cr151       O154   1.767       .  S
Cr152       O154   1.764       .  S
Cr153       O154   1.764       .  S
O155       Cr173   2.016       .  S
O155        C163   1.266       .  A
O156       Cr173   1.968       .  S
O156        C157   1.254       .  A
C157        O158   1.270       .  A
C157        C246   1.496       .  S
O158       Cr174   2.032       .  S
O159       Cr174   2.007       .  S
O159        C160   1.268       .  A
C160        O161   1.260       .  A
C160        C377   1.493       .  S
O161       Cr175   1.988       .  S
O162       Cr175   1.987       .  S
O162        C163   1.269       .  A
C163        C177   1.500       .  S
O164       Cr173   1.984       .  S
O164        C172   1.256       .  A
O165       Cr173   2.014       .  S
O165        C166   1.264       .  A
C166        O167   1.254       .  A
C166        C277   1.467       .  S
O167       Cr174   1.958       .  S
O168       Cr174   2.009       .  S
O168        C169   1.269       .  A
C169        O170   1.268       .  A
C169        C206   1.498       .  S
O170       Cr175   1.994       .  S
O171       Cr175   2.002       .  S
O171        C172   1.259       .  A
C172        C257   1.472       .  S
Cr173       O176   1.767       .  S
Cr174       O176   1.772       .  S
Cr175       O176   1.762       .  S
C177        C178   1.422       .  A
C177        C182   1.426       .  A
C178        C179   1.413       .  A
C178       Br190   1.933       .  S
C179        C180   1.406       .  A
C179       Br194   1.929       .  S
C180        C183   1.483       .  S
C180        C181   1.401       .  A
C181        C182   1.403       .  A
C181       Br189   1.940       .  S
C182       Br193   1.926       .  S
C183        C184   1.405       .  A
C183        C188   1.405       .  A
C184        C185   1.407       .  A
C184       Br195   1.935       .  S
C185        C186   1.423       .  A
C185       Br191   1.936       .  S
C186        C187   1.423       .  A
C187        C188   1.409       .  A
C187       Br196   1.934       .  S
C188       Br192   1.932       .  S
C197        C198   1.410       .  A
C197        C202   1.414       .  A
C198        C199   1.408       .  A
C198       Br210   1.927       .  S
C199        C200   1.409       .  A
C199       Br214   1.929       .  S
C200        C203   1.484   1_554  S
C200        C201   1.407       .  A
C201        C202   1.406       .  A
C201       Br209   1.932       .  S
C202       Br213   1.929       .  S
C203        C204   1.407       .  A
C203        C208   1.402       .  A
C204        C205   1.411       .  A
C204       Br215   1.932       .  S
C205        C206   1.422       .  A
C205       Br211   1.933       .  S
C206        C207   1.426       .  A
C207        C208   1.406       .  A
C207       Br216   1.934       .  S
C208       Br212   1.937   1_556  S
C217        C218   1.424       .  A
C217        C222   1.410       .  A
C218        C219   1.398       .  A
C218       Br230   1.942       .  S
C219        C220   1.400       .  A
C219       Br234   1.936   1_454  S
C220        C223   1.463   1_444  S
C220        C221   1.406   1_545  A
C221        C222   1.402   1_565  A
C221       Br229   1.930       .  S
C222       Br233   1.930   1_545  S
C223        C224   1.406       .  A
C223        C228   1.401       .  A
C224        C225   1.403       .  A
C224       Br235   1.929   1_556  S
C225        C226   1.409       .  A
C225       Br231   1.926       .  S
C226        C227   1.409       .  A
C227        C228   1.396       .  A
C227       Br236   1.910       .  S
C228       Br232   1.935   1_665  S
C237        C238   1.410       .  A
C237        C242   1.411   1_565  A
C238        C239   1.410   1_565  A
C238       Br250   1.924       .  S
C239        C240   1.412       .  A
C239       Br254   1.933       .  S
C240        C243   1.492       .  S
C240        C241   1.410       .  A
C241        C242   1.412       .  A
C241       Br249   1.928       .  S
C242       Br253   1.928       .  S
C243        C244   1.404       .  A
C243        C248   1.411       .  A
C244        C245   1.405       .  A
C244       Br255   1.937   1_545  S
C245        C246   1.424       .  A
C245       Br251   1.933       .  S
C246        C247   1.415       .  A
C247        C248   1.416       .  A
C247       Br256   1.928       .  S
C248       Br252   1.926       .  S
C257        C258   1.407       .  A
C257        C262   1.410   1_545  A
C258        C259   1.407   1_545  A
C258       Br270   1.931       .  S
C259        C260   1.412       .  A
C259       Br274   1.925       .  S
C260        C263   1.488       .  S
C260        C261   1.409       .  A
C261        C262   1.408       .  A
C261       Br269   1.928       .  S
C262       Br273   1.930   1_565  S
C263        C264   1.408       .  A
C263        C268   1.405       .  A
C264        C265   1.415       .  A
C264       Br275   1.927       .  S
C265        C266   1.417   1_455  A
C265       Br271   1.928       .  S
C266        C267   1.425       .  A
C267        C268   1.406   1_655  A
C267       Br276   1.935       .  S
C268       Br272   1.937   1_565  S
C277        C278   1.412       .  A
C277        C282   1.408       .  A
C278        C279   1.401       .  A
C278       Br290   1.929       .  S
C279        C280   1.404       .  A
C279       Br294   1.930       .  S
C280        C283   1.473   1_546  S
C280        C281   1.409   1_545  A
C281        C282   1.406   1_565  A
C281       Br289   1.931       .  S
C282       Br293   1.925   1_545  S
C283        C284   1.399       .  A
C283        C288   1.404   1_565  A
C284        C285   1.403       .  A
C284       Br295   1.937   1_554  S
C285        C286   1.427       .  A
C285       Br291   1.930       .  S
C286        C287   1.425       .  A
C287        C288   1.407   1_565  A
C287       Br296   1.937   1_565  S
C288       Br292   1.933       .  S
C297        C298   1.426       .  A
C297        C302   1.418       .  A
C298        C299   1.404       .  A
C298       Br310   1.935       .  S
C299        C300   1.402       .  A
C299       Br314   1.937   1_556  S
C300        C303   1.483   1_556  S
C300        C301   1.408       .  A
C301        C302   1.411       .  A
C301       Br309   1.928       .  S
C302       Br313   1.932       .  S
C303        C304   1.408       .  A
C303        C308   1.410       .  A
C304        C305   1.406       .  A
C304       Br315   1.929       .  S
C305        C306   1.410       .  A
C305       Br311   1.926       .  S
C306        C307   1.413       .  A
C307        C308   1.408       .  A
C307       Br316   1.932       .  S
C308       Br312   1.931       .  S
C317        C318   1.422       .  A
C317        C322   1.422       .  A
C318        C319   1.408       .  A
C318       Br330   1.933       .  S
C319        C320   1.406       .  A
C319       Br334   1.935       .  S
C320        C323   1.486       .  S
C320        C321   1.406       .  A
C321        C322   1.410       .  A
C321       Br329   1.932       .  S
C322       Br333   1.934       .  S
C323        C324   1.400       .  A
C323        C328   1.406       .  A
C324        C325   1.405       .  A
C324       Br335   1.940       .  S
C325        C326   1.427       .  A
C325       Br331   1.924       .  S
C326        C327   1.423       .  A
C327        C328   1.414       .  A
C327       Br336   1.932       .  S
C328       Br332   1.929       .  S
C337        C338   1.419   1_455  A
C337        C342   1.417       .  A
C338        C339   1.413       .  A
C338       Br350   1.916       .  S
C339        C340   1.407       .  A
C339       Br354   1.934       .  S
C340        C343   1.503       .  S
C340        C341   1.412       .  A
C341        C342   1.418   1_655  A
C341       Br349   1.926       .  S
C342       Br353   1.928       .  S
C343        C344   1.409       .  A
C343        C348   1.409   1_545  A
C344        C345   1.418       .  A
C344       Br355   1.930       .  S
C345        C346   1.424   1_545  A
C345       Br351   1.932       .  S
C346        C347   1.422       .  A
C347        C348   1.414       .  A
C347       Br356   1.933       .  S
C348       Br352   1.932       .  S
C357        C358   1.419   1_545  A
C357        C362   1.421       .  A
C358        C359   1.417       .  A
C358       Br370   1.931       .  S
C359        C360   1.411       .  A
C359       Br374   1.929       .  S
C360        C363   1.506       .  S
C360        C361   1.411   1_565  A
C361        C362   1.415       .  A
C361       Br369   1.932       .  S
C362       Br373   1.932       .  S
C363        C364   1.412       .  A
C363        C368   1.412       .  A
C364        C365   1.415       .  A
C364       Br375   1.927       .  S
C365        C366   1.412       .  A
C365       Br371   1.926       .  S
C366        C367   1.419       .  A
C367        C368   1.417       .  A
C367       Br376   1.930       .  S
C368       Br372   1.931       .  S
C377        C378   1.421       .  A
C377        C382   1.413       .  A
C378        C379   1.403       .  A
C378       Br390   1.932       .  S
C379        C380   1.404       .  A
C379       Br394   1.935       .  S
C380        C383   1.492       .  S
C380        C381   1.413       .  A
C381        C382   1.417       .  A
C381       Br389   1.926       .  S
C382       Br393   1.928       .  S
C383        C384   1.411       .  A
C383        C388   1.409       .  A
C384        C385   1.413       .  A
C384       Br395   1.929       .  S
C385        C386   1.414       .  A
C385       Br391   1.930       .  S
C386        C387   1.413       .  A
C387        C388   1.408       .  A
C387       Br396   1.930       .  S
C388       Br392   1.931       .  S
C397        C398   1.407       .  A
C397        C402   1.412       .  A
C398        C399   1.409       .  A
C398       Br410   1.924       .  S
C399        C400   1.411       .  A
C399       Br414   1.929       .  S
C400        C403   1.490       .  S
C400        C401   1.410       .  A
C401        C402   1.409       .  A
C401       Br409   1.931       .  S
C402       Br413   1.930       .  S
C403        C404   1.404       .  A
C403        C408   1.409       .  A
C404        C405   1.407       .  A
C404       Br415   1.935       .  S
C405        C406   1.427       .  A
C405       Br411   1.939       .  S
C406        C407   1.420       .  A
C407        C408   1.414       .  A
C407       Br416   1.931       .  S
C408       Br412   1.930       .  S
C417        C418   1.415       .  A
C417        C422   1.410       .  A
C418        C419   1.414       .  A
C418       Br430   1.927       .  S
C419        C420   1.411       .  A
C419       Br434   1.931       .  S
C420        C423   1.504   1_554  S
C420        C421   1.414       .  A
C421        C422   1.415       .  A
C421       Br429   1.928   1_554  S
C422       Br433   1.927       .  S
C423        C424   1.413       .  A
C423        C428   1.412       .  A
C424        C425   1.416       .  A
C424       Br435   1.929   1_556  S
C425        C426   1.415       .  A
C425       Br431   1.930       .  S
C426        C427   1.415       .  A
C427        C428   1.413       .  A
C427       Br436   1.932       .  S
C428       Br432   1.930       .  S
C437        C438   1.413       .  A
C437        C442   1.414       .  A
C438        C439   1.409       .  A
C438       Br450   1.930       .  S
C439        C440   1.410       .  A
C439       Br454   1.931       .  S
C440        C443   1.491       .  S
C440        C441   1.410       .  A
C441        C442   1.411       .  A
C441       Br449   1.929       .  S
C442       Br453   1.930       .  S
C443        C444   1.410       .  A
C443        C448   1.404       .  A
C444        C445   1.415       .  A
C444       Br455   1.928       .  S
C445        C446   1.416       .  A
C445       Br451   1.930       .  S
C446        C447   1.421       .  A
C447        C448   1.407       .  A
C447       Br456   1.923       .  S
C448       Br452   1.936       .  S
C457        C458   1.411       .  A
C457        C462   1.414       .  A
C458        C459   1.410       .  A
C458       Br470   1.925       .  S
C459        C460   1.409       .  A
C459       Br474   1.931       .  S
C460        C463   1.493       .  S
C460        C461   1.411       .  A
C461        C462   1.413       .  A
C461       Br469   1.929       .  S
C462       Br473   1.930       .  S
C463        C464   1.413       .  A
C463        C468   1.406       .  A
C464        C465   1.415       .  A
C464       Br475   1.928       .  S
C465        C466   1.412       .  A
C465       Br471   1.928       .  S
C466        C467   1.418       .  A
C467        C468   1.407       .  A
C467       Br476   1.932       .  S
C468       Br472   1.932       .  S
C477        C478   1.423       .  A
C477        C482   1.422       .  A
C478        C479   1.406       .  A
C478       Br490   1.934       .  S
C479        C480   1.404       .  A
C479       Br494   1.935       .  S
C480        C483   1.484   1_455  S
C480        C481   1.406       .  A
C481        C482   1.410       .  A
C481       Br489   1.932   1_455  S
C482       Br493   1.935       .  S
C483        C484   1.405       .  A
C483        C488   1.408       .  A
C484        C485   1.405       .  A
C484       Br495   1.934   1_655  S
C485        C486   1.419       .  A
C485       Br491   1.932   1_655  S
C486        C487   1.417       .  A
C487        C488   1.411       .  A
C487       Br496   1.930       .  S
C488       Br492   1.930       .  S
C497        C498   1.421       .  A
C497        C502   1.428       .  A
C498        C499   1.413       .  A
C498       Br510   1.927       .  S
C499        C500   1.408       .  A
C499       Br514   1.933       .  S
C500        C503   1.498       .  S
C500        C501   1.406       .  A
C501        C502   1.416       .  A
C501       Br509   1.932       .  S
C502       Br513   1.932       .  S
C503        C504   1.411       .  A
C503        C508   1.409       .  A
C504        C505   1.416       .  A
C504       Br515   1.928       .  S
C505        C506   1.419       .  A
C505       Br511   1.930       .  S
C506        C507   1.416       .  A
C507        C508   1.409       .  A
C507       Br516   1.933       .  S
C508       Br512   1.930       .  S
C517        C518   1.413   1_655  A
C517        C522   1.414       .  A
C518        C519   1.417       .  A
C518       Br530   1.926       .  S
C519        C520   1.412       .  A
C519       Br534   1.926       .  S
C520        C523   1.498       .  S
C520        C521   1.408   1_455  A
C521        C522   1.410       .  A
C521       Br529   1.929       .  S
C522       Br533   1.928       .  S
C523        C524   1.412       .  A
C523        C528   1.411       .  A
C524        C525   1.417       .  A
C524       Br535   1.926       .  S
C525        C526   1.413       .  A
C525       Br531   1.927       .  S
C526        C527   1.411       .  A
C527        C528   1.409       .  A
C527       Br536   1.925       .  S
C528       Br532   1.930       .  S
C537        C538   1.414       .  A
C537        C542   1.420       .  A
C538        C539   1.415       .  A
C538       Br550   1.929       .  S
C539        C540   1.412       .  A
C539       Br554   1.928       .  S
C540        C543   1.495       .  S
C540        C541   1.406       .  A
C541        C542   1.408       .  A
C541       Br549   1.933       .  S
C542       Br553   1.934       .  S
C543        C544   1.412       .  A
C543        C548   1.408       .  A
C544        C545   1.414       .  A
C544       Br555   1.927       .  S
C545        C546   1.409       .  A
C545       Br551   1.926       .  S
C546        C547   1.415       .  A
C547        C548   1.409       .  A
C547       Br556   1.924       .  S
C548       Br552   1.932       .  S
C557        C558   1.412       .  A
C557        C562   1.414       .  A
C558        C559   1.403       .  A
C558       Br570   1.924       .  S
C559        C560   1.406       .  A
C559       Br574   1.933       .  S
C560        C563   1.486       .  S
C560        C561   1.411       .  A
C561        C562   1.414       .  A
C561       Br569   1.929       .  S
C562       Br573   1.929       .  S
C563        C564   1.409       .  A
C563        C568   1.406       .  A
C564        C565   1.411       .  A
C564       Br575   1.929       .  S
C565        C566   1.416       .  A
C565       Br571   1.932       .  S
C566        C567   1.417       .  A
C567        C568   1.407       .  A
C567       Br576   1.929       .  S
C568       Br572   1.932       .  S
C577        C578   1.409       .  A
C577        C582   1.410       .  A
C578        C579   1.411       .  A
C578       Br590   1.930       .  S
C579        C580   1.411       .  A
C579       Br594   1.927       .  S
C580        C583   1.491       .  S
C580        C581   1.410       .  A
C581        C582   1.408       .  A
C581       Br589   1.930       .  S
C582       Br593   1.929       .  S
C583        C584   1.408       .  A
C583        C588   1.405       .  A
C584        C585   1.413       .  A
C584       Br595   1.932       .  S
C585        C586   1.424       .  A
C585       Br591   1.929       .  S
C586        C587   1.423       .  A
C587        C588   1.411       .  A
C587       Br596   1.938       .  S
C588       Br592   1.932       .  S
C597        C598   1.409       .  A
C597        C602   1.412       .  A
C598        C599   1.410       .  A
C598       Br610   1.928       .  S
C599        C600   1.411       .  A
C599       Br614   1.930   1_556  S
C600        C603   1.488   1_556  S
C600        C601   1.408       .  A
C601        C602   1.408       .  A
C601       Br609   1.929       .  S
C602       Br613   1.928       .  S
C603        C604   1.412       .  A
C603        C608   1.407       .  A
C604        C605   1.412       .  A
C604       Br615   1.928   1_554  S
C605        C606   1.409       .  A
C605       Br611   1.924       .  S
C606        C607   1.412       .  A
C607        C608   1.405       .  A
C607       Br616   1.929       .  S
C608       Br612   1.930       .  S
C617        C618   1.419       .  A
C617        C622   1.422       .  A
C618        C619   1.413       .  A
C618       Br630   1.930       .  S
C619        C620   1.409       .  A
C619       Br634   1.929       .  S
C620        C623   1.493       .  S
C620        C621   1.408       .  A
C621        C622   1.407       .  A
C621       Br629   1.935       .  S
C622       Br633   1.937       .  S
C623        C624   1.411       .  A
C623        C628   1.410       .  A
C624        C625   1.411   1_655  A
C624       Br635   1.930       .  S
C625        C626   1.413       .  A
C625       Br631   1.927       .  S
C626        C627   1.416   1_455  A
C627        C628   1.409       .  A
C627       Br636   1.933       .  S
C628       Br632   1.932       .  S
C637        C638   1.410       .  A
C637        C642   1.410       .  A
C638        C639   1.411       .  A
C638       Br650   1.928       .  S
C639        C640   1.411       .  A
C639       Br654   1.928       .  S
C640        C643   1.492       .  S
C640        C641   1.410       .  A
C641        C642   1.408       .  A
C641       Br649   1.930       .  S
C642       Br653   1.926       .  S
C643        C644   1.409       .  A
C643        C648   1.410       .  A
C644        C645   1.413       .  A
C644       Br655   1.928       .  S
C645        C646   1.417       .  A
C645       Br651   1.931       .  S
C646        C647   1.417       .  A
C647        C648   1.409       .  A
C647       Br656   1.932       .  S
C648       Br652   1.934       .  S
