geometry optimzed in LAMMPS
_audit_creation_date              2020-12-01 
_audit_creation_method            'lammps2cif' 
_symmetry_space_group_name_H-M    'P1' 
_symmetry_Int_Tables_number       1 
_symmetry_cell_setting            triclinic 
loop_ 
_symmetry_equiv_pos_as_xyz 
  x,y,z 
_cell_length_a                    47.5452532 
_cell_length_b                    35.757148490929175 
_cell_length_c                    48.379205632540874 
_cell_angle_alpha                 90.00154685077973 
_cell_angle_beta                  108.52528503754908 
_cell_angle_gamma                 89.9963911516128 
loop_ 
_atom_site_label 
_atom_site_type_symbol 
_atom_site_fract_x 
_atom_site_fract_y 
_atom_site_fract_z 
_atom_site_charge 
Fe1        Fe  0.38910159  0.91134740  0.44711176     1.65800
Fe2        Fe  0.34595989  0.90778219  0.49130995     1.73200
Fe3        Fe  0.38100492  0.98850888  0.48619587     1.54400
O4          O  0.42591858  0.98033062  0.49656188    -0.80100
O5          O  0.32123057  0.95260019  0.49420422    -0.78400
O6          O  0.43181753  0.93346660  0.46787150    -0.82600
O7          O  0.38046467  0.95599958  0.41880036    -0.77500
O8          O  0.38348916  0.97756066  0.02941672    -0.79200
O9          O  0.31727334  0.89797337  0.45022176    -0.82000
C10         C  0.37945512  0.99110308  0.42152743     0.98800
C11         C  0.44186683  0.96069669  0.48549930     1.06200
O12         O  0.37253271  0.93576802  0.47495098    -1.11000
O13         O  0.36490346  0.85697180  0.99147140    -0.73400
O14         O  0.40023034  0.86151162  0.47080401    -0.76900
O15         O  0.37966133  0.00690820  0.44505253    -0.77600
C16         C  0.38556388  0.84295482  0.48395878     0.97700
O17         O  0.34717240  0.89003646  0.42291307    -0.75500
O18         O  0.37275613  0.91726512  0.03340298    -0.80700
C19         C  0.31799910  0.98566877  0.48505197     1.00300
C20         C  0.38112531  0.94918728  0.04449491     1.06200
O21         O  0.33675776  0.00254509  0.47604222    -0.76400
C22         C  0.32155535  0.88996177  0.42631501     1.04500
Fe23       Fe  0.37629049  0.59434781  0.04798810     1.65800
Fe24       Fe  0.41932644  0.59753155  0.00377412     1.73200
Fe25       Fe  0.38390748  0.51724600  0.00876683     1.54400
O26         O  0.38460309  0.49898134  0.04977332    -0.80100
O27         O  0.39225359  0.58853586  0.46172187    -0.78400
O28         O  0.38549240  0.54992941  0.07652522    -0.82600
O29         O  0.33362092  0.57169132  0.02774145    -0.77500
O30         O  0.42815438  0.50300981  0.01947434    -0.79200
O31         O  0.40080873  0.64856541  0.50407764    -0.82000
C32         C  0.32335088  0.54491459  0.00971458     0.98800
C33         C  0.38558876  0.51479424  0.07352790     1.06200
O34         O  0.39264440  0.56983449  0.02009798    -1.11000
O35         O  0.44820326  0.60680387  0.04484047    -0.73400
O36         O  0.41816415  0.61620770  0.07180339    -0.76900
O37         O  0.33903559  0.52592932  0.49793271    -0.77600
C38         C  0.44384839  0.61562089  0.06856420     0.97700
O39         O  0.36480697  0.64382170  0.02387393    -0.75500
O40         O  0.44359621  0.55233619  0.00051293    -0.80700
C41         C  0.38414744  0.55656928  0.45058448     1.00300
C42         C  0.44689423  0.51950196  0.01020118     1.06200
O43         O  0.38195295  0.52809760  0.46564633    -0.76400
C44         C  0.37987519  0.66251661  0.01120473     1.04500
Fe45       Fe  0.12592486  0.91134992  0.29776433     1.65800
Fe46       Fe  0.16902272  0.90794964  0.25352846     1.73200
Fe47       Fe  0.13381110  0.98853999  0.25862468     1.54400
O48         O  0.08891980  0.98019083  0.24823781    -0.80100
O49         O  0.19362892  0.95287137  0.25058242    -0.78400
O50         O  0.08317305  0.93342449  0.27707865    -0.82600
O51         O  0.13456890  0.95599348  0.32608683    -0.77500
O52         O  0.13136904  0.97761469  0.21541189    -0.79200
O53         O  0.19776480  0.89823273  0.29460734    -0.82000
C54         C  0.13541482  0.99110554  0.32331250     0.98800
C55         C  0.07304444  0.96058186  0.25939916     1.06200
O56         O  0.14240919  0.93583263  0.26989583    -1.11000
O57         O  0.15020597  0.85706789  0.25343400    -0.73400
O58         O  0.11482706  0.86153219  0.27404461    -0.76900
O59         O  0.13508020  0.00691595  0.29975133    -0.77600
C60         C  0.12955583  0.84300079  0.26093589     0.97700
O61         O  0.16788459  0.89006367  0.32190457    -0.75500
O62         O  0.14216409  0.91733788  0.21144360    -0.80700
C63         C  0.19681376  0.98592368  0.25977645     1.00300
C64         C  0.13375204  0.94924313  0.20034006     1.06200
O65         O  0.17803068  0.00271580  0.26880625    -0.76400
C66         C  0.19350046  0.89010128  0.31850091     1.04500
Fe67       Fe  0.13910283  0.59433488  0.19723540     1.65800
Fe68       Fe  0.09607238  0.59749669  0.24144744     1.73200
Fe69       Fe  0.13153062  0.51724253  0.23647280     1.54400
O70         O  0.13089871  0.49898336  0.19548151    -0.80100
O71         O  0.12316339  0.58853798  0.28349869    -0.78400
O72         O  0.12988513  0.54992891  0.16869408    -0.82600
O73         O  0.18177674  0.57166734  0.21746690    -0.77500
O74         O  0.08728212  0.50298515  0.22572348    -0.79200
O75         O  0.11455396  0.64855099  0.24110710    -0.82000
C76         C  0.19206827  0.54493277  0.23553040     0.98800
C77         C  0.12986606  0.51479469  0.17171362     1.06200
O78         O  0.12276614  0.56981819  0.22512996    -1.11000
O79         O  0.06718146  0.60672179  0.20038024    -0.73400
O80         O  0.09722464  0.61620745  0.17343479    -0.76900
O81         O  0.17639959  0.52597830  0.24734827    -0.77600
C82         C  0.07153673  0.61557792  0.17666472     0.97700
O83         O  0.15059270  0.64379185  0.22135964    -0.75500
O84         O  0.07184125  0.55227369  0.24473478    -0.80700
C85         C  0.13125445  0.55656929  0.29464131     1.00300
C86         C  0.06854074  0.51945449  0.23501276     1.06200
O87         O  0.13343760  0.52808835  0.27958227    -0.76400
C88         C  0.13549644  0.66249927  0.23399248     1.04500
Fe89       Fe  0.37613239  0.41132118  0.29794442     1.65800
Fe90       Fe  0.41925229  0.40783002  0.25372867     1.73200
Fe91       Fe  0.38414972  0.48850120  0.25885263     1.54400
O92         O  0.33924300  0.48026342  0.24846702    -0.80100
O93         O  0.44392769  0.45269193  0.25080820    -0.78400
O94         O  0.33340519  0.43345562  0.27723087    -0.82600
O95         O  0.38479172  0.45595440  0.32627653    -0.77500
O96         O  0.38169223  0.47757403  0.21563374    -0.79200
O97         O  0.44796646  0.39805890  0.29480941    -0.82000
C98         C  0.38572037  0.49106308  0.32353098     0.98800
C99         C  0.32332476  0.46065612  0.25958019     1.06200
O100        O  0.39266654  0.43577163  0.27009762    -1.11000
O101        O  0.40036448  0.35698918  0.25359806    -0.73400
O102        O  0.36499837  0.36150901  0.27421880    -0.76900
O103        O  0.38545158  0.50687619  0.29999037    -0.77600
C104        C  0.37969705  0.34295775  0.26109065     0.97700
O105        O  0.41807230  0.38999120  0.32210594    -0.75500
O106        O  0.39242197  0.41727773  0.21164312    -0.80700
C107        C  0.44715200  0.48574393  0.26000000     1.00300
C108        C  0.38405188  0.44920053  0.20055201     1.06200
O109        O  0.42839036  0.50257977  0.26903346    -0.76400
C110        C  0.44369073  0.38997677  0.31870616     1.04500
Fe111      Fe  0.38890021  0.09431555  0.19705839     1.65800
Fe112      Fe  0.34583488  0.09758462  0.24124165     1.73200
Fe113      Fe  0.38119148  0.01723780  0.23625845     1.54400
O114        O  0.38050498  0.99895854  0.19525731    -0.80100
O115        O  0.37287844  0.08855593  0.28330179    -0.78400
O116        O  0.37968629  0.04989965  0.16852094    -0.82600
O117        O  0.43154762  0.07161456  0.21733530    -0.77500
O118        O  0.33692940  0.00307021  0.22552755    -0.79200
O119        O  0.36440159  0.14858929  0.24095712    -0.82000
C120        C  0.44178778  0.04482935  0.23536241     0.98800
C121        C  0.37955394  0.01476632  0.17151112     1.06200
O122        O  0.37250627  0.06983785  0.22493183    -1.11000
O123        O  0.31698605  0.10688536  0.20016643    -0.73400
O124        O  0.34704906  0.11621626  0.17321864    -0.76900
O125        O  0.42607414  0.02585508  0.24711721    -0.77600
C126        C  0.32135916  0.11566846  0.17644513     0.97700
O127        O  0.40040722  0.14378542  0.22117131    -0.75500
O128        O  0.32151946  0.05243128  0.24448227    -0.80700
C129        C  0.38095184  0.05657898  0.29443674     1.00300
C130        C  0.31819751  0.01959765  0.23479349     1.06200
O131        O  0.38312951  0.02809947  0.27937372    -0.76400
C132        C  0.38535127  0.16250628  0.23383951     1.04500
Fe133      Fe  0.12610719  0.09434339  0.04781472     1.65800
Fe134      Fe  0.16910177  0.09745235  0.00356953     1.73200
Fe135      Fe  0.13360368  0.01724740  0.00854892     1.54400
O136        O  0.13422283  0.99899271  0.04953748    -0.80100
O137        O  0.14197760  0.08853374  0.46152775    -0.78400
O138        O  0.13533886  0.04993623  0.07635737    -0.82600
O139        O  0.08342177  0.07169092  0.02761801    -0.77500
O140        O  0.17784385  0.00294910  0.01930351    -0.79200
O141        O  0.15066090  0.14852751  0.00394140    -0.82000
C142        C  0.07310331  0.04498117  0.00953800     0.98800
C143        C  0.13530447  0.01480136  0.07332023     1.06200
O144        O  0.14240605  0.06980954  0.01990032    -1.11000
O145        O  0.19802111  0.10664419  0.04462707    -0.73400
O146        O  0.16799807  0.11620341  0.07158360    -0.76900
O147        O  0.08874382  0.02604185  0.49767720    -0.77600
C148        C  0.19368053  0.11553922  0.06834228     0.97700
O149        O  0.11461762  0.14379814  0.02368607    -0.75500
O150        O  0.19329226  0.05219358  0.00025314    -0.80700
C151        C  0.13387801  0.05657110  0.45038038     1.00300
C152        C  0.19658905  0.01938758  0.01000396     1.06200
O153        O  0.13169949  0.02808784  0.46543795    -0.76400
C154        C  0.12972620  0.16249424  0.01106081     1.04500
Fe155      Fe  0.13930255  0.41134116  0.44729887     1.65800
Fe156      Fe  0.09617696  0.40787862  0.49150867     1.73200
Fe157      Fe  0.13129498  0.48853044  0.48638802     1.54400
O158        O  0.17619888  0.48026839  0.49677800    -0.80100
O159        O  0.07151443  0.45275321  0.49443556    -0.78400
O160        O  0.18203404  0.43343644  0.46803002    -0.82600
O161        O  0.13067041  0.45598032  0.41897444    -0.77500
O162        O  0.13375242  0.47760756  0.02960388    -0.79200
O163        O  0.06746113  0.39811824  0.45042362    -0.82000
C164        C  0.12973963  0.49108914  0.42171801     0.98800
C165        C  0.19211708  0.46063628  0.48567927     1.06200
O166        O  0.12276915  0.43580364  0.47514212    -1.11000
O167        O  0.11504543  0.35702588  0.99163172    -0.73400
O168        O  0.15041105  0.36152008  0.47100979    -0.76900
O169        O  0.12999966  0.50690480  0.44525498    -0.77600
C170        C  0.13570156  0.34297796  0.48412860     0.97700
O171        O  0.09735817  0.39004340  0.42312875    -0.75500
O172        O  0.12301409  0.41731588  0.03359380    -0.80700
C173        C  0.06829149  0.48579971  0.48523284     1.00300
C174        C  0.13139816  0.44923435  0.04468568     1.06200
O175        O  0.08705653  0.50262482  0.47620055    -0.76400
C176        C  0.07173921  0.39003315  0.42652699     1.04500
C177        C  0.12512157  0.20186286  0.00543289    -0.16900
C178        C  0.12899217  0.23429800  0.50053708     0.07100
C179        C  0.13660113  0.27120431  0.49479637     0.09000
C180        C  0.14040572  0.30363888  0.48984405    -0.17800
C181        C  0.21962160  0.12403989  0.09272677    -0.16900
C182        C  0.24330561  0.12740115  0.11164000     0.07100
C183        C  0.27176056  0.12744489  0.13310012     0.09000
C184        C  0.29543985  0.12414366  0.15202996    -0.17800
C185        C  0.46968190  0.38171621  0.34311852    -0.16900
C186        C  0.49344391  0.37852412  0.36195455     0.07100
C187        C  0.02199567  0.37854443  0.38327357     0.09000
C188        C  0.04575217  0.38176368  0.40211323    -0.17800
C189        C  0.39004243  0.20185308  0.23953219    -0.16900
C190        C  0.38624469  0.23428740  0.24449937     0.07100
C191        C  0.37871063  0.27119781  0.25032387     0.09000
C192        C  0.37495597  0.30362906  0.25533512    -0.17800
C193        C  0.22230497  0.53223692  0.24128592    -0.16900
C194        C  0.24496373  0.51436010  0.24517643     0.07100
C195        C  0.27023196  0.49082307  0.24941820     0.09000
C196        C  0.29297478  0.47307299  0.25347709    -0.17800
C197        C  0.47331812  0.50327600  0.25867323    -0.16900
C198        C  0.49551318  0.50481724  0.25211256     0.07100
C199        C  0.02001171  0.50014408  0.24236973     0.09000
C200        C  0.04230609  0.50177276  0.23599131    -0.17800
C201        C  0.12985543  0.51366577  0.39711239    -0.16900
C202        C  0.13209578  0.52896255  0.37562789     0.07100
C203        C  0.13495696  0.54280689  0.34921361     0.09000
C204        C  0.13544212  0.55116324  0.32516324    -0.17800
C205        C  0.13015197  0.49222938  0.14716014    -0.16900
C206        C  0.13246789  0.47695204  0.12570026     0.07100
C207        C  0.13533736  0.46311324  0.09929060     0.09000
C208        C  0.13575871  0.45472484  0.07522713    -0.17800
C209        C  0.14012680  0.70186266  0.23963388    -0.16900
C210        C  0.13627994  0.73430420  0.24453564     0.07100
C211        C  0.12868699  0.77121965  0.25027813     0.09000
C212        C  0.12487839  0.80365581  0.25522750    -0.17800
C213        C  0.13528382  0.01368913  0.34791047    -0.16900
C214        C  0.13303277  0.02898833  0.36939025     0.07100
C215        C  0.13016396  0.04282778  0.39580312     0.09000
C216        C  0.12967991  0.05117459  0.41985571    -0.17800
C217        C  0.13501264  0.99223335  0.09787111    -0.16900
C218        C  0.13269341  0.97695155  0.11932693     0.07100
C219        C  0.12981990  0.96310920  0.14573482     0.09000
C220        C  0.12939476  0.95472393  0.16979705    -0.17800
C221        C  0.47201987  0.03210554  0.24114793    -0.16900
C222        C  0.49467465  0.01422026  0.24504563     0.07100
C223        C  0.01994179  0.99068728  0.24927940     0.09000
C224        C  0.04268907  0.97295455  0.25332218    -0.17800
C225        C  0.22296407  0.00350551  0.25846212    -0.16900
C226        C  0.24516340  0.00505832  0.25191136     0.07100
C227        C  0.26966071  0.00036633  0.24217178     0.09000
C228        C  0.29195150  0.00196420  0.23578654    -0.17800
C229        C  0.04560407  0.62406378  0.15226494    -0.16900
C230        C  0.02192157  0.62740207  0.13334454     0.07100
C231        C  0.49346459  0.62741770  0.11188600     0.09000
C232        C  0.46978050  0.62409966  0.09296524    -0.17800
C233        C  0.38533840  0.49222271  0.09809101    -0.16900
C234        C  0.38303806  0.47693072  0.11955190     0.07100
C235        C  0.38016256  0.46308173  0.14595737     0.09000
C236        C  0.37971964  0.45469361  0.17001444    -0.17800
C237        C  0.37996155  0.55115278  0.42006373    -0.16900
C238        C  0.38046448  0.54279133  0.39601976     0.07100
C239        C  0.38335118  0.52894249  0.36961587     0.09000
C240        C  0.38560504  0.51364286  0.34813682    -0.17800
C241        C  0.29312037  0.53220652  0.00396303    -0.16900
C242        C  0.27047197  0.51431621  0.50008195     0.07100
C243        C  0.24521389  0.49077113  0.49585030     0.09000
C244        C  0.22247144  0.47302694  0.49179283    -0.17800
C245        C  0.04211971  0.50333601  0.48654049    -0.16900
C246        C  0.01991655  0.50487270  0.49308605     0.07100
C247        C  0.49541521  0.50019513  0.00282089     0.09000
C248        C  0.47312432  0.50182576  0.00920374    -0.17800
C249        C  0.21949683  0.88182499  0.34290286    -0.16900
C250        C  0.24325667  0.87859171  0.36173527     0.07100
C251        C  0.27180934  0.87855001  0.38305185     0.09000
C252        C  0.29556993  0.88172189  0.40189220    -0.17800
C253        C  0.39033162  0.80363124  0.48971873    -0.16900
C254        C  0.38658591  0.77120014  0.49473340     0.07100
C255        C  0.37904112  0.73429707  0.50055815     0.09000
C256        C  0.37521921  0.70186971  0.00552139    -0.17800
C257        C  0.04287195  0.03229023  0.00381479    -0.16900
C258        C  0.02022037  0.01440843  0.49994079     0.07100
C259        C  0.49495946  0.99086544  0.49570317     0.09000
C260        C  0.47221816  0.97311363  0.49163309    -0.17800
C261        C  0.29183026  0.00317498  0.48640059    -0.16900
C262        C  0.26963906  0.00470702  0.49296820     0.07100
C263        C  0.24513398  0.00004004  0.00269996     0.09000
C264        C  0.22282711  0.00168529  0.00905443    -0.17800
C265        C  0.38545225  0.95467908  0.07503141    -0.16900
C266        C  0.38499994  0.96306213  0.09908654     0.07100
C267        C  0.38211247  0.97690279  0.12548983     0.09000
C268        C  0.37980511  0.99219055  0.14694996    -0.17800
C269        C  0.37954237  0.01368722  0.39691508    -0.16900
C270        C  0.38177022  0.02897868  0.37542290     0.07100
C271        C  0.38463226  0.04281315  0.34900500     0.09000
C272        C  0.38512724  0.05116535  0.32495652    -0.17800
Fe273      Fe  0.38910157  0.91134738  0.94711173     1.65800
Fe274      Fe  0.34595983  0.90778215  0.99130993     1.73200
Fe275      Fe  0.38100487  0.98850886  0.98619590     1.54400
O276        O  0.42591852  0.98033056  0.99656183    -0.80100
O277        O  0.32123048  0.95260015  0.99420420    -0.78400
O278        O  0.43181752  0.93346658  0.96787144    -0.82600
O279        O  0.38046473  0.95599957  0.91880034    -0.77500
O280        O  0.38348914  0.97756064  0.52941667    -0.79200
O281        O  0.31727332  0.89797331  0.95022174    -0.82000
C282        C  0.37945513  0.99110308  0.92152745     0.98800
C283        C  0.44186678  0.96069668  0.98549924     1.06200
O284        O  0.37253263  0.93576800  0.97495094    -1.11000
O285        O  0.36490350  0.85697185  0.49147149    -0.73400
O286        O  0.40023034  0.86151161  0.97080396    -0.76900
O287        O  0.37966124  0.00690815  0.94505251    -0.77600
C288        C  0.38556386  0.84295479  0.98395872     0.97700
O289        O  0.34717240  0.89003645  0.92291306    -0.75500
O290        O  0.37275613  0.91726512  0.53340299    -0.80700
C291        C  0.31799903  0.98566873  0.98505199     1.00300
C292        C  0.38112536  0.94918727  0.54449488     1.06200
O293        O  0.33675771  0.00254506  0.97604225    -0.76400
C294        C  0.32155534  0.88996174  0.92631500     1.04500
Fe295      Fe  0.37629047  0.59434790  0.54798818     1.65800
Fe296      Fe  0.41932645  0.59753154  0.50377410     1.73200
Fe297      Fe  0.38390739  0.51724602  0.50876681     1.54400
O298        O  0.38460303  0.49898132  0.54977327    -0.80100
O299        O  0.39225363  0.58853585  0.96172183    -0.78400
O300        O  0.38549236  0.54992940  0.57652521    -0.82600
O301        O  0.33362090  0.57169134  0.52774160    -0.77500
O302        O  0.42815429  0.50300981  0.51947429    -0.79200
O303        O  0.40080872  0.64856538  0.00407766    -0.82000
C304        C  0.32335085  0.54491460  0.50971472     0.98800
C305        C  0.38558873  0.51479422  0.57352785     1.06200
O306        O  0.39264440  0.56983452  0.52009804    -1.11000
O307        O  0.44820324  0.60680386  0.54484043    -0.73400
O308        O  0.41816421  0.61620772  0.57180346    -0.76900
O309        O  0.33903566  0.52592928  0.99793264    -0.77600
C310        C  0.44384838  0.61562087  0.56856417     0.97700
O311        O  0.36480694  0.64382172  0.52387390    -0.75500
O312        O  0.44359623  0.55233615  0.50051292    -0.80700
C313        C  0.38414748  0.55656925  0.95058446     1.00300
C314        C  0.44689422  0.51950194  0.51020124     1.06200
O315        O  0.38195304  0.52809757  0.96564631    -0.76400
C316        C  0.37987518  0.66251665  0.51120471     1.04500
Fe317      Fe  0.12592494  0.91134994  0.79776432     1.65800
Fe318      Fe  0.16902277  0.90794960  0.75352846     1.73200
Fe319      Fe  0.13381105  0.98854007  0.75862463     1.54400
O320        O  0.08891975  0.98019082  0.74823780    -0.80100
O321        O  0.19362896  0.95287133  0.75058252    -0.78400
O322        O  0.08317315  0.93342451  0.77707873    -0.82600
O323        O  0.13456897  0.95599348  0.82608678    -0.77500
O324        O  0.13136898  0.97761467  0.71541185    -0.79200
O325        O  0.19776479  0.89823263  0.79460731    -0.82000
C326        C  0.13541481  0.99110555  0.82331246     0.98800
C327        C  0.07304448  0.96058187  0.75939924     1.06200
O328        O  0.14240928  0.93583271  0.76989584    -1.11000
O329        O  0.15020591  0.85706786  0.75343397    -0.73400
O330        O  0.11482703  0.86153220  0.77404461    -0.76900
O331        O  0.13508022  0.00691600  0.79975130    -0.77600
C332        C  0.12955579  0.84300078  0.76093593     0.97700
O333        O  0.16788465  0.89006379  0.82190463    -0.75500
O334        O  0.14216423  0.91733790  0.71144364    -0.80700
C335        C  0.19681371  0.98592369  0.75977643     1.00300
C336        C  0.13375213  0.94924312  0.70034009     1.06200
O337        O  0.17803061  0.00271588  0.76880616    -0.76400
C338        C  0.19350052  0.89010130  0.81850090     1.04500
Fe339      Fe  0.13910277  0.59433486  0.69723537     1.65800
Fe340      Fe  0.09607247  0.59749669  0.74144753     1.73200
Fe341      Fe  0.13153066  0.51724252  0.73647279     1.54400
O342        O  0.13089883  0.49898335  0.69548155    -0.80100
O343        O  0.12316353  0.58853799  0.78349875    -0.78400
O344        O  0.12988515  0.54992887  0.66869408    -0.82600
O345        O  0.18177666  0.57166732  0.71746685    -0.77500
O346        O  0.08728216  0.50298525  0.72572344    -0.79200
O347        O  0.11455396  0.64855100  0.74110714    -0.82000
C348        C  0.19206822  0.54493275  0.73553034     0.98800
C349        C  0.12986609  0.51479466  0.67171367     1.06200
O350        O  0.12276617  0.56981818  0.72512998    -1.11000
O351        O  0.06718150  0.60672179  0.70038030    -0.73400
O352        O  0.09722459  0.61620740  0.67343475    -0.76900
O353        O  0.17639957  0.52597829  0.74734825    -0.77600
C354        C  0.07153671  0.61557788  0.67666474     0.97700
O355        O  0.15059265  0.64379187  0.72135961    -0.75500
O356        O  0.07184135  0.55227373  0.74473488    -0.80700
C357        C  0.13125443  0.55656925  0.79464130     1.00300
C358        C  0.06854079  0.51945454  0.73501274     1.06200
O359        O  0.13343752  0.52808831  0.77958222    -0.76400
C360        C  0.13549647  0.66249926  0.73399251     1.04500
Fe361      Fe  0.37613249  0.41132120  0.79794450     1.65800
Fe362      Fe  0.41925229  0.40783000  0.75372863     1.73200
Fe363      Fe  0.38414970  0.48850118  0.75885264     1.54400
O364        O  0.33924295  0.48026341  0.74846696    -0.80100
O365        O  0.44392769  0.45269192  0.75080813    -0.78400
O366        O  0.33340523  0.43345562  0.77723089    -0.82600
O367        O  0.38479186  0.45595443  0.82627662    -0.77500
O368        O  0.38169231  0.47757403  0.71563379    -0.79200
O369        O  0.44796650  0.39805893  0.79480936    -0.82000
C370        C  0.38572035  0.49106310  0.82353098     0.98800
C371        C  0.32332473  0.46065618  0.75958018     1.06200
O372        O  0.39266656  0.43577162  0.77009763    -1.11000
O373        O  0.40036450  0.35698915  0.75359811    -0.73400
O374        O  0.36499850  0.36150897  0.77421897    -0.76900
O375        O  0.38545149  0.50687619  0.79999035    -0.77600
C376        C  0.37969712  0.34295773  0.76109076     0.97700
O377        O  0.41807241  0.38999123  0.82210596    -0.75500
O378        O  0.39242199  0.41727772  0.71164308    -0.80700
C379        C  0.44715200  0.48574388  0.75999998     1.00300
C380        C  0.38405189  0.44920060  0.70055199     1.06200
O381        O  0.42839037  0.50257967  0.76903352    -0.76400
C382        C  0.44369079  0.38997683  0.81870618     1.04500
Fe383      Fe  0.38890031  0.09431554  0.69705845     1.65800
Fe384      Fe  0.34583488  0.09758462  0.74124163     1.73200
Fe385      Fe  0.38119154  0.01723778  0.73625845     1.54400
O386        O  0.38050500  0.99895855  0.69525729    -0.80100
O387        O  0.37287852  0.08855593  0.78330172    -0.78400
O388        O  0.37968642  0.04989968  0.66852098    -0.82600
O389        O  0.43154775  0.07161453  0.71733534    -0.77500
O390        O  0.33692942  0.00307020  0.72552748    -0.79200
O391        O  0.36440168  0.14858925  0.74095716    -0.82000
C392        C  0.44178791  0.04482943  0.73536250     0.98800
C393        C  0.37955398  0.01476635  0.67151109     1.06200
O394        O  0.37250626  0.06983781  0.72493179    -1.11000
O395        O  0.31698599  0.10688538  0.70016643    -0.73400
O396        O  0.34704909  0.11621620  0.67321870    -0.76900
O397        O  0.42607426  0.02585515  0.74711730    -0.77600
C398        C  0.32135916  0.11566843  0.67644513     0.97700
O399        O  0.40040737  0.14378541  0.72117142    -0.75500
O400        O  0.32151949  0.05243127  0.74448222    -0.80700
C401        C  0.38095192  0.05657898  0.79443672     1.00300
C402        C  0.31819752  0.01959769  0.73479342     1.06200
O403        O  0.38312952  0.02809942  0.77937374    -0.76400
C404        C  0.38535136  0.16250626  0.73383953     1.04500
Fe405      Fe  0.12610716  0.09434340  0.54781467     1.65800
Fe406      Fe  0.16910183  0.09745235  0.50356953     1.73200
Fe407      Fe  0.13360377  0.01724737  0.50854890     1.54400
O408        O  0.13422290  0.99899266  0.54953746    -0.80100
O409        O  0.14197766  0.08853375  0.96152773    -0.78400
O410        O  0.13533888  0.04993621  0.57635731    -0.82600
O411        O  0.08342176  0.07169094  0.52761797    -0.77500
O412        O  0.17784391  0.00294913  0.51930342    -0.79200
O413        O  0.15066091  0.14852749  0.50394149    -0.82000
C414        C  0.07310337  0.04498113  0.50953800     0.98800
C415        C  0.13530448  0.01480134  0.57332020     1.06200
O416        O  0.14240616  0.06980951  0.51990036    -1.11000
O417        O  0.19802114  0.10664414  0.54462709    -0.73400
O418        O  0.16799804  0.11620342  0.57158357    -0.76900
O419        O  0.08874373  0.02604186  0.99767718    -0.77600
C420        C  0.19368056  0.11553919  0.56834226     0.97700
O421        O  0.11461754  0.14379819  0.52368603    -0.75500
O422        O  0.19329235  0.05219363  0.50025309    -0.80700
C423        C  0.13387802  0.05657117  0.95038037     1.00300
C424        C  0.19658910  0.01938759  0.51000394     1.06200
O425        O  0.13169942  0.02808789  0.96543798    -0.76400
C426        C  0.12972620  0.16249425  0.51106079     1.04500
Fe427      Fe  0.13930258  0.41134115  0.94729888     1.65800
Fe428      Fe  0.09617692  0.40787860  0.99150874     1.73200
Fe429      Fe  0.13129505  0.48853041  0.98638811     1.54400
O430        O  0.17619891  0.48026829  0.99677812    -0.80100
O431        O  0.07151442  0.45275322  0.99443568    -0.78400
O432        O  0.18203401  0.43343649  0.96802999    -0.82600
O433        O  0.13067037  0.45598038  0.91897451    -0.77500
O434        O  0.13375233  0.47760761  0.52960383    -0.79200
O435        O  0.06746112  0.39811828  0.95042362    -0.82000
C436        C  0.12973968  0.49108918  0.92171811     0.98800
C437        C  0.19211707  0.46063626  0.98567928     1.06200
O438        O  0.12276919  0.43580359  0.97514220    -1.11000
O439        O  0.11504550  0.35702590  0.49163178    -0.73400
O440        O  0.15041114  0.36152008  0.97100988    -0.76900
O441        O  0.12999982  0.50690486  0.94525511    -0.77600
C442        C  0.13570153  0.34297795  0.98412857     0.97700
O443        O  0.09735820  0.39004341  0.92312876    -0.75500
O444        O  0.12301415  0.41731590  0.53359374    -0.80700
C445        C  0.06829146  0.48579968  0.98523283     1.00300
C446        C  0.13139811  0.44923443  0.54468560     1.06200
O447        O  0.08705653  0.50262473  0.97620054    -0.76400
C448        C  0.07173921  0.39003322  0.92652703     1.04500
C449        C  0.12512157  0.20186287  0.50543281    -0.16900
C450        C  0.12899210  0.23429800  0.00053714     0.07100
C451        C  0.13660102  0.27120429  0.99479633     0.09000
C452        C  0.14040563  0.30363884  0.98984397    -0.17800
C453        C  0.21962161  0.12403987  0.59272678    -0.16900
C454        C  0.24330561  0.12740112  0.61164004     0.07100
C455        C  0.27176060  0.12744486  0.63310007     0.09000
C456        C  0.29543990  0.12414362  0.65202993    -0.17800
C457        C  0.46968196  0.38171624  0.84311851    -0.16900
C458        C  0.49344392  0.37852408  0.86195463     0.07100
C459        C  0.02199572  0.37854440  0.88327352     0.09000
C460        C  0.04575220  0.38176370  0.90211322    -0.17800
C461        C  0.39004238  0.20185315  0.73953211    -0.16900
C462        C  0.38624459  0.23428741  0.74449928     0.07100
C463        C  0.37871052  0.27119784  0.75032381     0.09000
C464        C  0.37495592  0.30362905  0.75533512    -0.17800
C465        C  0.22230488  0.53223689  0.74128585    -0.16900
C466        C  0.24496366  0.51436004  0.74517637     0.07100
C467        C  0.27023188  0.49082307  0.74941818     0.09000
C468        C  0.29297479  0.47307302  0.75347715    -0.17800
C469        C  0.47331808  0.50327601  0.75867318    -0.16900
C470        C  0.49551314  0.50481721  0.75211249     0.07100
C471        C  0.02001172  0.50014410  0.74236964     0.09000
C472        C  0.04230614  0.50177288  0.73599123    -0.17800
C473        C  0.12985546  0.51366578  0.89711241    -0.16900
C474        C  0.13209573  0.52896249  0.87562788     0.07100
C475        C  0.13495685  0.54280684  0.84921355     0.09000
C476        C  0.13544203  0.55116315  0.82516321    -0.17800
C477        C  0.13015191  0.49222929  0.64716012    -0.16900
C478        C  0.13246787  0.47695200  0.62570033     0.07100
C479        C  0.13533741  0.46311322  0.59929060     0.09000
C480        C  0.13575869  0.45472486  0.57522715    -0.17800
C481        C  0.14012686  0.70186269  0.73963401    -0.16900
C482        C  0.13628003  0.73430420  0.74453574     0.07100
C483        C  0.12868696  0.77121967  0.75027816     0.09000
C484        C  0.12487835  0.80365577  0.75522758    -0.17800
C485        C  0.13528374  0.01368907  0.84791042    -0.16900
C486        C  0.13303275  0.02898832  0.86939024     0.07100
C487        C  0.13016405  0.04282790  0.89580310     0.09000
C488        C  0.12967998  0.05117463  0.91985572    -0.17800
C489        C  0.13501260  0.99223337  0.59787111    -0.16900
C490        C  0.13269341  0.97695157  0.61932695     0.07100
C491        C  0.12981998  0.96310914  0.64573486     0.09000
C492        C  0.12939489  0.95472386  0.66979709    -0.17800
C493        C  0.47202001  0.03210556  0.74114803    -0.16900
C494        C  0.49467469  0.01422021  0.74504562     0.07100
C495        C  0.01994175  0.99068722  0.74927939     0.09000
C496        C  0.04268906  0.97295451  0.75332230    -0.17800
C497        C  0.22296408  0.00350548  0.75846211    -0.16900
C498        C  0.24516342  0.00505828  0.75191141     0.07100
C499        C  0.26966073  0.00036632  0.74217176     0.09000
C500        C  0.29195149  0.00196423  0.73578649    -0.17800
C501        C  0.04560401  0.62406373  0.65226497    -0.16900
C502        C  0.02192149  0.62740204  0.63334460     0.07100
C503        C  0.49346458  0.62741767  0.61188596     0.09000
C504        C  0.46978060  0.62409963  0.59296521    -0.17800
C505        C  0.38533840  0.49222267  0.59809097    -0.16900
C506        C  0.38303808  0.47693067  0.61955188     0.07100
C507        C  0.38016252  0.46308173  0.64595733     0.09000
C508        C  0.37971958  0.45469367  0.67001444    -0.17800
C509        C  0.37996157  0.55115276  0.92006369    -0.16900
C510        C  0.38046443  0.54279131  0.89601972     0.07100
C511        C  0.38335108  0.52894248  0.86961580     0.09000
C512        C  0.38560494  0.51364289  0.84813679    -0.17800
C513        C  0.29312036  0.53220653  0.50396320    -0.16900
C514        C  0.27047197  0.51431621  0.00008186     0.07100
C515        C  0.24521388  0.49077114  0.99585035     0.09000
C516        C  0.22247141  0.47302696  0.99179283    -0.17800
C517        C  0.04211967  0.50333600  0.98654042    -0.16900
C518        C  0.01991650  0.50487262  0.99308601     0.07100
C519        C  0.49541516  0.50019527  0.50282089     0.09000
C520        C  0.47312431  0.50182575  0.50920386    -0.17800
C521        C  0.21949687  0.88182497  0.84290284    -0.16900
C522        C  0.24325665  0.87859174  0.86173536     0.07100
C523        C  0.27180930  0.87855014  0.88305193     0.09000
C524        C  0.29556996  0.88172194  0.90189221    -0.17800
C525        C  0.39033163  0.80363122  0.98971867    -0.16900
C526        C  0.38658583  0.77120014  0.99473331     0.07100
C527        C  0.37904099  0.73429704  0.00055802     0.09000
C528        C  0.37521925  0.70186972  0.50552148    -0.17800
C529        C  0.04287202  0.03229013  0.50381484    -0.16900
C530        C  0.02022031  0.01440842  0.99994076     0.07100
C531        C  0.49495946  0.99086544  0.99570323     0.09000
C532        C  0.47221813  0.97311366  0.99163310    -0.17800
C533        C  0.29183020  0.00317496  0.98640055    -0.16900
C534        C  0.26963897  0.00470701  0.99296816     0.07100
C535        C  0.24513401  0.00004003  0.50269996     0.09000
C536        C  0.22282721  0.00168531  0.50905446    -0.17800
C537        C  0.38545234  0.95467906  0.57503143    -0.16900
C538        C  0.38499990  0.96306210  0.59908650     0.07100
C539        C  0.38211235  0.97690281  0.62548976     0.09000
C540        C  0.37980504  0.99219061  0.64694992    -0.17800
C541        C  0.37954240  0.01368721  0.89691505    -0.16900
C542        C  0.38177017  0.02897864  0.87542284     0.07100
C543        C  0.38463220  0.04281319  0.84900493     0.09000
C544        C  0.38512730  0.05116548  0.82495652    -0.17800
Fe545      Fe  0.88910155  0.91134740  0.44711177     1.65800
Fe546      Fe  0.84595991  0.90778218  0.49130995     1.73200
Fe547      Fe  0.88100488  0.98850888  0.48619587     1.54400
O548        O  0.92591856  0.98033062  0.49656186    -0.80100
O549        O  0.82123063  0.95260019  0.49420423    -0.78400
O550        O  0.93181752  0.93346659  0.46787151    -0.82600
O551        O  0.88046473  0.95599959  0.41880037    -0.77500
O552        O  0.88348910  0.97756068  0.02941671    -0.79200
O553        O  0.81727338  0.89797337  0.45022173    -0.82000
C554        C  0.87945514  0.99110308  0.42152744     0.98800
C555        C  0.94186679  0.96069669  0.48549929     1.06200
O556        O  0.87253265  0.93576803  0.47495096    -1.11000
O557        O  0.86490352  0.85697184  0.99147139    -0.73400
O558        O  0.90023030  0.86151164  0.47080403    -0.76900
O559        O  0.87966122  0.00690819  0.44505251    -0.77600
C560        C  0.88556384  0.84295481  0.48395878     0.97700
O561        O  0.84717241  0.89003645  0.42291302    -0.75500
O562        O  0.87275622  0.91726511  0.03340298    -0.80700
C563        C  0.81799914  0.98566877  0.48505197     1.00300
C564        C  0.88112534  0.94918728  0.04449491     1.06200
O565        O  0.83675777  0.00254511  0.47604222    -0.76400
C566        C  0.82155536  0.88996177  0.42631494     1.04500
Fe567      Fe  0.87629049  0.59434781  0.04798809     1.65800
Fe568      Fe  0.91932645  0.59753155  0.00377411     1.73200
Fe569      Fe  0.88390741  0.51724601  0.00876682     1.54400
O570        O  0.88460313  0.49898134  0.04977334    -0.80100
O571        O  0.89225360  0.58853587  0.46172186    -0.78400
O572        O  0.88549233  0.54992940  0.07652521    -0.82600
O573        O  0.83362091  0.57169135  0.02774148    -0.77500
O574        O  0.92815431  0.50300983  0.01947430    -0.79200
O575        O  0.90080869  0.64856540  0.50407761    -0.82000
C576        C  0.82335085  0.54491458  0.00971462     0.98800
C577        C  0.88558878  0.51479423  0.07352791     1.06200
O578        O  0.89264442  0.56983448  0.02009798    -1.11000
O579        O  0.94820323  0.60680386  0.04484047    -0.73400
O580        O  0.91816416  0.61620771  0.07180342    -0.76900
O581        O  0.83903565  0.52592932  0.49793270    -0.77600
C582        C  0.94384837  0.61562089  0.06856421     0.97700
O583        O  0.86480693  0.64382171  0.02387391    -0.75500
O584        O  0.94359624  0.55233619  0.00051294    -0.80700
C585        C  0.88414750  0.55656928  0.45058449     1.00300
C586        C  0.94689422  0.51950197  0.01020119     1.06200
O587        O  0.88195303  0.52809760  0.46564633    -0.76400
C588        C  0.87987516  0.66251660  0.01120473     1.04500
Fe589      Fe  0.62592491  0.91134992  0.29776433     1.65800
Fe590      Fe  0.66902274  0.90794964  0.25352845     1.73200
Fe591      Fe  0.63381101  0.98853999  0.25862467     1.54400
O592        O  0.58891971  0.98019085  0.24823780    -0.80100
O593        O  0.69362886  0.95287139  0.25058243    -0.78400
O594        O  0.58317307  0.93342448  0.27707865    -0.82600
O595        O  0.63456893  0.95599348  0.32608683    -0.77500
O596        O  0.63136893  0.97761466  0.21541187    -0.79200
O597        O  0.69776479  0.89823273  0.29460733    -0.82000
C598        C  0.63541477  0.99110554  0.32331250     0.98800
C599        C  0.57304441  0.96058186  0.25939916     1.06200
O600        O  0.64240920  0.93583263  0.26989582    -1.11000
O601        O  0.65020596  0.85706791  0.25343397    -0.73400
O602        O  0.61482709  0.86153217  0.27404464    -0.76900
O603        O  0.63508018  0.00691596  0.29975134    -0.77600
C604        C  0.62955586  0.84300080  0.26093589     0.97700
O605        O  0.66788461  0.89006366  0.32190459    -0.75500
O606        O  0.64216417  0.91733790  0.21144360    -0.80700
C607        C  0.69681366  0.98592370  0.25977645     1.00300
C608        C  0.63375207  0.94924313  0.20034006     1.06200
O609        O  0.67803058  0.00271582  0.26880623    -0.76400
C610        C  0.69350047  0.89010129  0.31850090     1.04500
Fe611      Fe  0.63910276  0.59433488  0.19723540     1.65800
Fe612      Fe  0.59607238  0.59749668  0.24144745     1.73200
Fe613      Fe  0.63153067  0.51724253  0.23647280     1.54400
O614        O  0.63089877  0.49898336  0.19548152    -0.80100
O615        O  0.62316342  0.58853797  0.28349868    -0.78400
O616        O  0.62988516  0.54992892  0.16869408    -0.82600
O617        O  0.68177668  0.57166735  0.21746691    -0.77500
O618        O  0.58728216  0.50298517  0.22572350    -0.79200
O619        O  0.61455396  0.64855097  0.24110713    -0.82000
C620        C  0.69206829  0.54493278  0.23553039     0.98800
C621        C  0.62986613  0.51479470  0.17171363     1.06200
O622        O  0.62276609  0.56981816  0.22512994    -1.11000
O623        O  0.56718141  0.60672181  0.20038023    -0.73400
O624        O  0.59722459  0.61620744  0.17343479    -0.76900
O625        O  0.67639964  0.52597828  0.24734829    -0.77600
C626        C  0.57153666  0.61557792  0.17666471     0.97700
O627        O  0.65059264  0.64379186  0.22135961    -0.75500
O628        O  0.57184123  0.55227370  0.24473477    -0.80700
C629        C  0.63125445  0.55656928  0.29464131     1.00300
C630        C  0.56854074  0.51945448  0.23501277     1.06200
O631        O  0.63343763  0.52808835  0.27958227    -0.76400
C632        C  0.63549642  0.66249927  0.23399247     1.04500
Fe633      Fe  0.87613243  0.41132119  0.29794442     1.65800
Fe634      Fe  0.91925227  0.40783002  0.25372867     1.73200
Fe635      Fe  0.88414973  0.48850121  0.25885264     1.54400
O636        O  0.83924298  0.48026344  0.24846701    -0.80100
O637        O  0.94392770  0.45269191  0.25080820    -0.78400
O638        O  0.83340522  0.43345561  0.27723087    -0.82600
O639        O  0.88479177  0.45595439  0.32627654    -0.77500
O640        O  0.88169230  0.47757404  0.21563376    -0.79200
O641        O  0.94796645  0.39805890  0.29480939    -0.82000
C642        C  0.88572028  0.49106308  0.32353096     0.98800
C643        C  0.82332473  0.46065613  0.25958019     1.06200
O644        O  0.89266656  0.43577166  0.27009764    -1.11000
O645        O  0.90036452  0.35698917  0.25359805    -0.73400
O646        O  0.86499844  0.36150901  0.27421880    -0.76900
O647        O  0.88545147  0.50687620  0.29999034    -0.77600
C648        C  0.87969710  0.34295775  0.26109066     0.97700
O649        O  0.91807233  0.38999120  0.32210594    -0.75500
O650        O  0.89242199  0.41727773  0.21164311    -0.80700
C651        C  0.94715201  0.48574391  0.26000001     1.00300
C652        C  0.88405191  0.44920053  0.20055201     1.06200
O653        O  0.92839039  0.50257976  0.26903347    -0.76400
C654        C  0.94369071  0.38997677  0.31870616     1.04500
Fe655      Fe  0.88890025  0.09431555  0.19705840     1.65800
Fe656      Fe  0.84583483  0.09758464  0.24124165     1.73200
Fe657      Fe  0.88119150  0.01723780  0.23625844     1.54400
O658        O  0.88050490  0.99895855  0.19525728    -0.80100
O659        O  0.87287847  0.08855593  0.28330178    -0.78400
O660        O  0.87968637  0.04989965  0.16852096    -0.82600
O661        O  0.93154769  0.07161456  0.21733530    -0.77500
O662        O  0.83692940  0.00307020  0.22552756    -0.79200
O663        O  0.86440162  0.14858928  0.24095710    -0.82000
C664        C  0.94178785  0.04482935  0.23536240     0.98800
C665        C  0.87955397  0.01476632  0.17151111     1.06200
O666        O  0.87250623  0.06983785  0.22493180    -1.11000
O667        O  0.81698597  0.10688537  0.20016641    -0.73400
O668        O  0.84704907  0.11621625  0.17321868    -0.76900
O669        O  0.92607419  0.02585508  0.24711719    -0.77600
C670        C  0.82135912  0.11566846  0.17644514     0.97700
O671        O  0.90040728  0.14378542  0.22117131    -0.75500
O672        O  0.82151947  0.05243127  0.24448228    -0.80700
C673        C  0.88095191  0.05657898  0.29443675     1.00300
C674        C  0.81819753  0.01959764  0.23479350     1.06200
O675        O  0.88312959  0.02809947  0.27937373    -0.76400
C676        C  0.88535132  0.16250628  0.23383952     1.04500
Fe677      Fe  0.62610716  0.09434342  0.04781472     1.65800
Fe678      Fe  0.66910181  0.09745236  0.00356953     1.73200
Fe679      Fe  0.63360375  0.01724740  0.00854893     1.54400
O680        O  0.63422289  0.99899271  0.04953749    -0.80100
O681        O  0.64197765  0.08853373  0.46152775    -0.78400
O682        O  0.63533888  0.04993623  0.07635736    -0.82600
O683        O  0.58342172  0.07169093  0.02761800    -0.77500
O684        O  0.67784390  0.00294910  0.01930351    -0.79200
O685        O  0.65066093  0.14852755  0.00394141    -0.82000
C686        C  0.57310333  0.04498117  0.00953800     0.98800
C687        C  0.63530449  0.01480137  0.07332022     1.06200
O688        O  0.64240608  0.06980956  0.01990034    -1.11000
O689        O  0.69802118  0.10664419  0.04462707    -0.73400
O690        O  0.66799809  0.11620339  0.07158357    -0.76900
O691        O  0.58874370  0.02604183  0.49767719    -0.77600
C692        C  0.69368055  0.11553921  0.06834226     0.97700
O693        O  0.61461766  0.14379822  0.02368610    -0.75500
O694        O  0.69329229  0.05219358  0.00025313    -0.80700
C695        C  0.63387797  0.05657110  0.45038038     1.00300
C696        C  0.69658907  0.01938756  0.01000396     1.06200
O697        O  0.63169934  0.02808787  0.46543794    -0.76400
C698        C  0.62972622  0.16249428  0.01106081     1.04500
Fe699      Fe  0.63930255  0.41134116  0.44729887     1.65800
Fe700      Fe  0.59617688  0.40787862  0.49150867     1.73200
Fe701      Fe  0.63129499  0.48853043  0.48638802     1.54400
O702        O  0.67619889  0.48026836  0.49677800    -0.80100
O703        O  0.57151440  0.45275322  0.49443556    -0.78400
O704        O  0.68203408  0.43343645  0.46803001    -0.82600
O705        O  0.63067030  0.45598032  0.41897443    -0.77500
O706        O  0.63375229  0.47760758  0.02960388    -0.79200
O707        O  0.56746105  0.39811824  0.45042362    -0.82000
C708        C  0.62973958  0.49108914  0.42171802     0.98800
C709        C  0.69211712  0.46063627  0.48567927     1.06200
O710        O  0.62276910  0.43580363  0.47514211    -1.11000
O711        O  0.61504550  0.35702587  0.99163172    -0.73400
O712        O  0.65041108  0.36152006  0.47100980    -0.76900
O713        O  0.62999970  0.50690482  0.44525499    -0.77600
C714        C  0.63570152  0.34297798  0.48412859     0.97700
O715        O  0.59735815  0.39004340  0.42312878    -0.75500
O716        O  0.62301414  0.41731585  0.03359380    -0.80700
C717        C  0.56829144  0.48579973  0.48523285     1.00300
C718        C  0.63139807  0.44923435  0.04468567     1.06200
O719        O  0.58705650  0.50262483  0.47620055    -0.76400
C720        C  0.57173916  0.39003315  0.42652702     1.04500
C721        C  0.62512156  0.20186290  0.00543286    -0.16900
C722        C  0.62899212  0.23429800  0.50053709     0.07100
C723        C  0.63660111  0.27120431  0.49479637     0.09000
C724        C  0.64040566  0.30363887  0.48984403    -0.17800
C725        C  0.71962163  0.12403989  0.09272678    -0.16900
C726        C  0.74330559  0.12740116  0.11164002     0.07100
C727        C  0.77176058  0.12744489  0.13310011     0.09000
C728        C  0.79543987  0.12414367  0.15202993    -0.17800
C729        C  0.96968192  0.38171621  0.34311853    -0.16900
C730        C  0.99344387  0.37852412  0.36195459     0.07100
C731        C  0.52199567  0.37854442  0.38327353     0.09000
C732        C  0.54575215  0.38176367  0.40211324    -0.17800
C733        C  0.89004245  0.20185308  0.23953219    -0.16900
C734        C  0.88624460  0.23428738  0.24449936     0.07100
C735        C  0.87871054  0.27119778  0.25032387     0.09000
C736        C  0.87495600  0.30362906  0.25533512    -0.17800
C737        C  0.72230497  0.53223699  0.24128589    -0.16900
C738        C  0.74496376  0.51436012  0.24517643     0.07100
C739        C  0.77023191  0.49082304  0.24941821     0.09000
C740        C  0.79297478  0.47307294  0.25347711    -0.17800
C741        C  0.97331811  0.50327601  0.25867322    -0.16900
C742        C  0.99551314  0.50481725  0.25211254     0.07100
C743        C  0.52001171  0.50014407  0.24236971     0.09000
C744        C  0.54230612  0.50177273  0.23599130    -0.17800
C745        C  0.62985540  0.51366576  0.39711237    -0.16900
C746        C  0.63209574  0.52896255  0.37562788     0.07100
C747        C  0.63495698  0.54280689  0.34921361     0.09000
C748        C  0.63544215  0.55116323  0.32516325    -0.17800
C749        C  0.63015200  0.49222938  0.14716014    -0.16900
C750        C  0.63246785  0.47695203  0.12570026     0.07100
C751        C  0.63533733  0.46311324  0.09929060     0.09000
C752        C  0.63575862  0.45472483  0.07522713    -0.17800
C753        C  0.64012676  0.70186266  0.23963388    -0.16900
C754        C  0.63627997  0.73430420  0.24453564     0.07100
C755        C  0.62868707  0.77121967  0.25027813     0.09000
C756        C  0.62487844  0.80365581  0.25522751    -0.17800
C757        C  0.63528368  0.01368911  0.34791043    -0.16900
C758        C  0.63303267  0.02898832  0.36939023     0.07100
C759        C  0.63016399  0.04282778  0.39580314     0.09000
C760        C  0.62967994  0.05117459  0.41985573    -0.17800
C761        C  0.63501259  0.99223336  0.09787109    -0.16900
C762        C  0.63269343  0.97695155  0.11932692     0.07100
C763        C  0.62981998  0.96310920  0.14573484     0.09000
C764        C  0.62939483  0.95472395  0.16979707    -0.17800
C765        C  0.97201995  0.03210553  0.24114793    -0.16900
C766        C  0.99467473  0.01422027  0.24504563     0.07100
C767        C  0.51994172  0.99068724  0.24927941     0.09000
C768        C  0.54268899  0.97295451  0.25332221    -0.17800
C769        C  0.72296404  0.00350550  0.25846212    -0.16900
C770        C  0.74516334  0.00505830  0.25191135     0.07100
C771        C  0.76966073  0.00036634  0.24217179     0.09000
C772        C  0.79195149  0.00196420  0.23578657    -0.17800
C773        C  0.54560406  0.62406378  0.15226494    -0.16900
C774        C  0.52192149  0.62740207  0.13334454     0.07100
C775        C  0.99346462  0.62741770  0.11188596     0.09000
C776        C  0.96978055  0.62409965  0.09296524    -0.17800
C777        C  0.88533848  0.49222269  0.09809103    -0.16900
C778        C  0.88303809  0.47693072  0.11955192     0.07100
C779        C  0.88016246  0.46308174  0.14595734     0.09000
C780        C  0.87971954  0.45469361  0.17001441    -0.17800
C781        C  0.87996163  0.55115279  0.42006375    -0.16900
C782        C  0.88046451  0.54279134  0.39601977     0.07100
C783        C  0.88335108  0.52894248  0.36961585     0.09000
C784        C  0.88560489  0.51364283  0.34813679    -0.17800
C785        C  0.79312038  0.53220652  0.00396315    -0.16900
C786        C  0.77047203  0.51431621  0.50008195     0.07100
C787        C  0.74521395  0.49077114  0.49585030     0.09000
C788        C  0.72247147  0.47302697  0.49179284    -0.17800
C789        C  0.54211968  0.50333599  0.48654050    -0.16900
C790        C  0.51991647  0.50487270  0.49308605     0.07100
C791        C  0.99541519  0.50019512  0.00282087     0.09000
C792        C  0.97312431  0.50182573  0.00920376    -0.17800
C793        C  0.71949683  0.88182499  0.34290284    -0.16900
C794        C  0.74325663  0.87859170  0.36173531     0.07100
C795        C  0.77180928  0.87855001  0.38305187     0.09000
C796        C  0.79556994  0.88172190  0.40189217    -0.17800
C797        C  0.89033164  0.80363123  0.48971874    -0.16900
C798        C  0.88658593  0.77120015  0.49473340     0.07100
C799        C  0.87904107  0.73429709  0.50055815     0.09000
C800        C  0.87521923  0.70186970  0.00552140    -0.17800
C801        C  0.54287197  0.03229016  0.00381476    -0.16900
C802        C  0.52022029  0.01440844  0.49994080     0.07100
C803        C  0.99495944  0.99086546  0.49570317     0.09000
C804        C  0.97221819  0.97311367  0.49163310    -0.17800
C805        C  0.79183031  0.00317498  0.48640060    -0.16900
C806        C  0.76963911  0.00470702  0.49296821     0.07100
C807        C  0.74513403  0.00004005  0.00269996     0.09000
C808        C  0.72282717  0.00168529  0.00905442    -0.17800
C809        C  0.88545226  0.95467907  0.07503141    -0.16900
C810        C  0.88499989  0.96306212  0.09908652     0.07100
C811        C  0.88211249  0.97690278  0.12548983     0.09000
C812        C  0.87980517  0.99219055  0.14694999    -0.17800
C813        C  0.87954239  0.01368722  0.39691509    -0.16900
C814        C  0.88177013  0.02897870  0.37542287     0.07100
C815        C  0.88463216  0.04281316  0.34900497     0.09000
C816        C  0.88512726  0.05116535  0.32495652    -0.17800
Fe817      Fe  0.88910158  0.91134737  0.94711171     1.65800
Fe818      Fe  0.84595990  0.90778216  0.99130994     1.73200
Fe819      Fe  0.88100492  0.98850886  0.98619591     1.54400
O820        O  0.92591858  0.98033058  0.99656186    -0.80100
O821        O  0.82123056  0.95260016  0.99420420    -0.78400
O822        O  0.93181751  0.93346659  0.96787143    -0.82600
O823        O  0.88046465  0.95599956  0.91880032    -0.77500
O824        O  0.88348916  0.97756064  0.52941669    -0.79200
O825        O  0.81727335  0.89797332  0.95022177    -0.82000
C826        C  0.87945512  0.99110308  0.92152744     0.98800
C827        C  0.94186681  0.96069668  0.98549924     1.06200
O828        O  0.87253269  0.93576800  0.97495095    -1.11000
O829        O  0.86490345  0.85697180  0.49147146    -0.73400
O830        O  0.90023040  0.86151160  0.97080397    -0.76900
O831        O  0.87966134  0.00690816  0.94505254    -0.77600
C832        C  0.88556390  0.84295480  0.98395871     0.97700
O833        O  0.84717238  0.89003644  0.92291304    -0.75500
O834        O  0.87275619  0.91726510  0.53340298    -0.80700
C835        C  0.81799910  0.98566874  0.98505199     1.00300
C836        C  0.88112538  0.94918726  0.54449488     1.06200
O837        O  0.83675778  0.00254506  0.97604223    -0.76400
C838        C  0.82155536  0.88996174  0.92631501     1.04500
Fe839      Fe  0.87629051  0.59434789  0.54798818     1.65800
Fe840      Fe  0.91932641  0.59753154  0.50377410     1.73200
Fe841      Fe  0.88390746  0.51724600  0.50876682     1.54400
O842        O  0.88460306  0.49898132  0.54977326    -0.80100
O843        O  0.89225358  0.58853584  0.96172184    -0.78400
O844        O  0.88549239  0.54992940  0.57652520    -0.82600
O845        O  0.83362097  0.57169133  0.52774159    -0.77500
O846        O  0.92815435  0.50300977  0.51947431    -0.79200
O847        O  0.90080871  0.64856536  0.00407769    -0.82000
C848        C  0.82335092  0.54491460  0.50971472     0.98800
C849        C  0.88558873  0.51479422  0.57352784     1.06200
O850        O  0.89264442  0.56983450  0.52009806    -1.11000
O851        O  0.94820321  0.60680387  0.54484043    -0.73400
O852        O  0.91816419  0.61620772  0.57180346    -0.76900
O853        O  0.83903559  0.52592929  0.99793266    -0.77600
C854        C  0.94384839  0.61562088  0.56856418     0.97700
O855        O  0.86480697  0.64382173  0.52387392    -0.75500
O856        O  0.94359619  0.55233616  0.50051291    -0.80700
C857        C  0.88414742  0.55656925  0.95058445     1.00300
C858        C  0.94689425  0.51950195  0.51020124     1.06200
O859        O  0.88195292  0.52809757  0.96564630    -0.76400
C860        C  0.87987519  0.66251665  0.51120471     1.04500
Fe861      Fe  0.62592486  0.91134994  0.79776432     1.65800
Fe862      Fe  0.66902270  0.90794962  0.75352846     1.73200
Fe863      Fe  0.63381107  0.98854007  0.75862464     1.54400
O864        O  0.58891977  0.98019080  0.74823781    -0.80100
O865        O  0.69362895  0.95287131  0.75058251    -0.78400
O866        O  0.58317307  0.93342450  0.77707873    -0.82600
O867        O  0.63456887  0.95599348  0.82608677    -0.77500
O868        O  0.63136903  0.97761471  0.71541186    -0.79200
O869        O  0.69776478  0.89823263  0.79460730    -0.82000
C870        C  0.63541479  0.99110555  0.82331246     0.98800
C871        C  0.57304445  0.96058186  0.75939924     1.06200
O872        O  0.64240921  0.93583270  0.76989584    -1.11000
O873        O  0.65020595  0.85706786  0.75343397    -0.73400
O874        O  0.61482706  0.86153219  0.77404460    -0.76900
O875        O  0.63508017  0.00691599  0.79975129    -0.77600
C876        C  0.62955584  0.84300077  0.76093594     0.97700
O877        O  0.66788462  0.89006383  0.82190461    -0.75500
O878        O  0.64216409  0.91733788  0.71144364    -0.80700
C879        C  0.69681374  0.98592368  0.75977643     1.00300
C880        C  0.63375204  0.94924312  0.70034009     1.06200
O881        O  0.67803064  0.00271587  0.76880618    -0.76400
C882        C  0.69350047  0.89010130  0.81850091     1.04500
Fe883      Fe  0.63910280  0.59433486  0.69723537     1.65800
Fe884      Fe  0.59607242  0.59749670  0.74144753     1.73200
Fe885      Fe  0.63153060  0.51724252  0.73647278     1.54400
O886        O  0.63089873  0.49898334  0.69548154    -0.80100
O887        O  0.62316342  0.58853797  0.78349875    -0.78400
O888        O  0.62988510  0.54992886  0.66869408    -0.82600
O889        O  0.68177672  0.57166732  0.71746684    -0.77500
O890        O  0.58728207  0.50298524  0.72572344    -0.79200
O891        O  0.61455398  0.64855099  0.74110713    -0.82000
C892        C  0.69206825  0.54493273  0.73553033     0.98800
C893        C  0.62986607  0.51479466  0.67171367     1.06200
O894        O  0.62276617  0.56981821  0.72513001    -1.11000
O895        O  0.56718149  0.60672179  0.70038029    -0.73400
O896        O  0.59722460  0.61620740  0.67343476    -0.76900
O897        O  0.67639957  0.52597827  0.74734821    -0.77600
C898        C  0.57153674  0.61557788  0.67666474     0.97700
O899        O  0.65059268  0.64379187  0.72135961    -0.75500
O900        O  0.57184131  0.55227373  0.74473488    -0.80700
C901        C  0.63125444  0.55656926  0.79464131     1.00300
C902        C  0.56854072  0.51945456  0.73501274     1.06200
O903        O  0.63343757  0.52808834  0.77958222    -0.76400
C904        C  0.63549645  0.66249926  0.73399252     1.04500
Fe905      Fe  0.87613241  0.41132119  0.79794449     1.65800
Fe906      Fe  0.91925229  0.40783000  0.75372865     1.73200
Fe907      Fe  0.88414974  0.48850118  0.75885264     1.54400
O908        O  0.83924301  0.48026343  0.74846697    -0.80100
O909        O  0.94392767  0.45269193  0.75080813    -0.78400
O910        O  0.83340522  0.43345563  0.77723087    -0.82600
O911        O  0.88479174  0.45595444  0.82627660    -0.77500
O912        O  0.88169224  0.47757401  0.71563377    -0.79200
O913        O  0.94796644  0.39805893  0.79480940    -0.82000
C914        C  0.88572037  0.49106310  0.82353099     0.98800
C915        C  0.82332477  0.46065619  0.75958017     1.06200
O916        O  0.89266651  0.43577159  0.77009761    -1.11000
O917        O  0.90036449  0.35698917  0.75359814    -0.73400
O918        O  0.86499842  0.36150896  0.77421894    -0.76900
O919        O  0.88545159  0.50687618  0.79999037    -0.77600
C920        C  0.87969708  0.34295773  0.76109076     0.97700
O921        O  0.91807232  0.38999123  0.82210597    -0.75500
O922        O  0.89242208  0.41727774  0.71164308    -0.80700
C923        C  0.94715204  0.48574388  0.75999998     1.00300
C924        C  0.88405192  0.44920059  0.70055199     1.06200
O925        O  0.92839042  0.50257969  0.76903353    -0.76400
C926        C  0.94369075  0.38997683  0.81870620     1.04500
Fe927      Fe  0.88890023  0.09431553  0.69705844     1.65800
Fe928      Fe  0.84583487  0.09758461  0.74124163     1.73200
Fe929      Fe  0.88119148  0.01723778  0.73625845     1.54400
O930        O  0.88050504  0.99895854  0.69525731    -0.80100
O931        O  0.87287841  0.08855592  0.78330172    -0.78400
O932        O  0.87968631  0.04989968  0.66852097    -0.82600
O933        O  0.93154764  0.07161452  0.71733534    -0.77500
O934        O  0.83692937  0.00307021  0.72552748    -0.79200
O935        O  0.86440160  0.14858930  0.74095718    -0.82000
C936        C  0.94178781  0.04482941  0.73536251     0.98800
C937        C  0.87955400  0.01476635  0.67151110     1.06200
O938        O  0.87250625  0.06983780  0.72493182    -1.11000
O939        O  0.81698604  0.10688537  0.70016643    -0.73400
O940        O  0.84704906  0.11621622  0.67321865    -0.76900
O941        O  0.92607416  0.02585513  0.74711731    -0.77600
C942        C  0.82135916  0.11566844  0.67644511     0.97700
O943        O  0.90040725  0.14378539  0.72117141    -0.75500
O944        O  0.82151943  0.05243128  0.74448220    -0.80700
C945        C  0.88095183  0.05657898  0.79443672     1.00300
C946        C  0.81819746  0.01959771  0.73479342     1.06200
O947        O  0.88312950  0.02809944  0.77937374    -0.76400
C948        C  0.88535127  0.16250627  0.73383953     1.04500
Fe949      Fe  0.62610717  0.09434340  0.54781467     1.65800
Fe950      Fe  0.66910185  0.09745234  0.50356953     1.73200
Fe951      Fe  0.63360366  0.01724737  0.50854888     1.54400
O952        O  0.63422281  0.99899266  0.54953746    -0.80100
O953        O  0.64197759  0.08853376  0.96152773    -0.78400
O954        O  0.63533883  0.04993621  0.57635731    -0.82600
O955        O  0.58342175  0.07169095  0.52761797    -0.77500
O956        O  0.67784384  0.00294911  0.51930341    -0.79200
O957        O  0.65066095  0.14852750  0.50394148    -0.82000
C958        C  0.57310329  0.04498115  0.50953801     0.98800
C959        C  0.63530446  0.01480133  0.57332021     1.06200
O960        O  0.64240612  0.06980951  0.51990033    -1.11000
O961        O  0.69802117  0.10664414  0.54462710    -0.73400
O962        O  0.66799804  0.11620340  0.57158355    -0.76900
O963        O  0.58874379  0.02604189  0.99767719    -0.77600
C964        C  0.69368055  0.11553919  0.56834227     0.97700
O965        O  0.61461759  0.14379819  0.52368603    -0.75500
O966        O  0.69329231  0.05219359  0.50025309    -0.80700
C967        C  0.63387800  0.05657117  0.95038037     1.00300
C968        C  0.69658908  0.01938758  0.51000394     1.06200
O969        O  0.63169950  0.02808786  0.96543799    -0.76400
C970        C  0.62972619  0.16249425  0.51106079     1.04500
Fe971      Fe  0.63930256  0.41134117  0.94729890     1.65800
Fe972      Fe  0.59617697  0.40787860  0.99150875     1.73200
Fe973      Fe  0.63129501  0.48853041  0.98638812     1.54400
O974        O  0.67619892  0.48026830  0.99677811    -0.80100
O975        O  0.57151448  0.45275322  0.99443568    -0.78400
O976        O  0.68203402  0.43343648  0.96802997    -0.82600
O977        O  0.63067041  0.45598043  0.91897450    -0.77500
O978        O  0.63375239  0.47760758  0.52960384    -0.79200
O979        O  0.56746111  0.39811829  0.95042366    -0.82000
C980        C  0.62973965  0.49108922  0.92171811     0.98800
C981        C  0.69211709  0.46063626  0.98567927     1.06200
O982        O  0.62276920  0.43580360  0.97514222    -1.11000
O983        O  0.61504549  0.35702594  0.49163177    -0.73400
O984        O  0.65041117  0.36152009  0.97100987    -0.76900
O985        O  0.62999972  0.50690486  0.94525511    -0.77600
C986        C  0.63570159  0.34297794  0.98412857     0.97700
O987        O  0.59735819  0.39004339  0.92312882    -0.75500
O988        O  0.62301403  0.41731592  0.53359373    -0.80700
C989        C  0.56829148  0.48579968  0.98523283     1.00300
C990        C  0.63139809  0.44923443  0.54468559     1.06200
O991        O  0.58705652  0.50262474  0.97620053    -0.76400
C992        C  0.57173921  0.39003322  0.92652705     1.04500
C993        C  0.62512156  0.20186287  0.50543280    -0.16900
C994        C  0.62899214  0.23429802  0.00053713     0.07100
C995        C  0.63660110  0.27120429  0.99479633     0.09000
C996        C  0.64040570  0.30363884  0.98984397    -0.17800
C997        C  0.71962156  0.12403987  0.59272678    -0.16900
C998        C  0.74330558  0.12740112  0.61164003     0.07100
C999        C  0.77176054  0.12744485  0.63310010     0.09000
C1000       C  0.79543986  0.12414361  0.65202995    -0.17800
C1001       C  0.96968190  0.38171625  0.84311852    -0.16900
C1002       C  0.99344393  0.37852409  0.86195460     0.07100
C1003       C  0.52199570  0.37854440  0.88327357     0.09000
C1004       C  0.54575220  0.38176371  0.90211324    -0.17800
C1005       C  0.89004239  0.20185314  0.73953212    -0.16900
C1006       C  0.88624466  0.23428742  0.74449929     0.07100
C1007       C  0.87871059  0.27119785  0.75032381     0.09000
C1008       C  0.87495595  0.30362905  0.75533512    -0.17800
C1009       C  0.72230494  0.53223688  0.74128585    -0.16900
C1010       C  0.74496373  0.51436005  0.74517637     0.07100
C1011       C  0.77023195  0.49082308  0.74941818     0.09000
C1012       C  0.79297485  0.47307304  0.75347714    -0.17800
C1013       C  0.97331812  0.50327597  0.75867317    -0.16900
C1014       C  0.99551320  0.50481721  0.75211248     0.07100
C1015       C  0.52001168  0.50014410  0.74236965     0.09000
C1016       C  0.54230606  0.50177291  0.73599124    -0.17800
C1017       C  0.62985542  0.51366590  0.89711243    -0.16900
C1018       C  0.63209575  0.52896254  0.87562789     0.07100
C1019       C  0.63495693  0.54280683  0.84921355     0.09000
C1020       C  0.63544211  0.55116314  0.82516322    -0.17800
C1021       C  0.63015198  0.49222930  0.64716015    -0.16900
C1022       C  0.63246795  0.47695201  0.62570036     0.07100
C1023       C  0.63533743  0.46311322  0.59929060     0.09000
C1024       C  0.63575864  0.45472487  0.57522714    -0.17800
C1025       C  0.64012685  0.70186267  0.73963401    -0.16900
C1026       C  0.63627997  0.73430418  0.74453574     0.07100
C1027       C  0.62868699  0.77121966  0.75027816     0.09000
C1028       C  0.62487842  0.80365578  0.75522759    -0.17800
C1029       C  0.63528381  0.01368909  0.84791045    -0.16900
C1030       C  0.63303279  0.02898833  0.86939026     0.07100
C1031       C  0.63016395  0.04282790  0.89580308     0.09000
C1032       C  0.62967987  0.05117464  0.91985570    -0.17800
C1033       C  0.63501267  0.99223335  0.59787115    -0.16900
C1034       C  0.63269345  0.97695156  0.61932698     0.07100
C1035       C  0.62981988  0.96310915  0.64573485     0.09000
C1036       C  0.62939475  0.95472385  0.66979706    -0.17800
C1037       C  0.97201992  0.03210554  0.74114803    -0.16900
C1038       C  0.99467465  0.01422023  0.74504561     0.07100
C1039       C  0.51994178  0.99068722  0.74927939     0.09000
C1040       C  0.54268908  0.97295455  0.75332227    -0.17800
C1041       C  0.72296407  0.00350548  0.75846211    -0.16900
C1042       C  0.74516343  0.00505828  0.75191142     0.07100
C1043       C  0.76966071  0.00036631  0.74217177     0.09000
C1044       C  0.79195145  0.00196421  0.73578647    -0.17800
C1045       C  0.54560403  0.62406373  0.65226496    -0.16900
C1046       C  0.52192154  0.62740204  0.63334460     0.07100
C1047       C  0.99346458  0.62741768  0.61188596     0.09000
C1048       C  0.96978055  0.62409963  0.59296520    -0.17800
C1049       C  0.88533843  0.49222267  0.59809096    -0.16900
C1050       C  0.88303815  0.47693066  0.61955189     0.07100
C1051       C  0.88016260  0.46308173  0.64595733     0.09000
C1052       C  0.87971964  0.45469368  0.67001445    -0.17800
C1053       C  0.87996152  0.55115275  0.92006368    -0.16900
C1054       C  0.88046445  0.54279131  0.89601972     0.07100
C1055       C  0.88335115  0.52894249  0.86961582     0.09000
C1056       C  0.88560501  0.51364291  0.84813680    -0.17800
C1057       C  0.79312043  0.53220653  0.50396320    -0.16900
C1058       C  0.77047195  0.51431622  0.00008191     0.07100
C1059       C  0.74521391  0.49077114  0.99585034     0.09000
C1060       C  0.72247143  0.47302693  0.99179282    -0.17800
C1061       C  0.54211967  0.50333597  0.98654041    -0.16900
C1062       C  0.51991653  0.50487262  0.99308601     0.07100
C1063       C  0.99541521  0.50019528  0.50282090     0.09000
C1064       C  0.97312436  0.50182580  0.50920384    -0.17800
C1065       C  0.71949684  0.88182497  0.84290285    -0.16900
C1066       C  0.74325664  0.87859174  0.86173533     0.07100
C1067       C  0.77180930  0.87855014  0.88305191     0.09000
C1068       C  0.79556992  0.88172194  0.90189222    -0.17800
C1069       C  0.89033161  0.80363121  0.98971866    -0.16900
C1070       C  0.88658586  0.77120014  0.99473331     0.07100
C1071       C  0.87904106  0.73429702  0.00055803     0.09000
C1072       C  0.87521925  0.70186974  0.50552149    -0.17800
C1073       C  0.54287196  0.03229021  0.50381488    -0.16900
C1074       C  0.52022033  0.01440839  0.99994075     0.07100
C1075       C  0.99495948  0.99086541  0.99570322     0.09000
C1076       C  0.97221816  0.97311361  0.99163308    -0.17800
C1077       C  0.79183026  0.00317496  0.98640056    -0.16900
C1078       C  0.76963904  0.00470701  0.99296816     0.07100
C1079       C  0.74513405  0.00004004  0.50269996     0.09000
C1080       C  0.72282721  0.00168533  0.50905447    -0.17800
C1081       C  0.88545230  0.95467906  0.57503142    -0.16900
C1082       C  0.88499992  0.96306210  0.59908650     0.07100
C1083       C  0.88211243  0.97690282  0.62548978     0.09000
C1084       C  0.87980512  0.99219063  0.64694993    -0.17800
C1085       C  0.87954236  0.01368720  0.89691504    -0.16900
C1086       C  0.88177019  0.02897863  0.87542285     0.07100
C1087       C  0.88463223  0.04281318  0.84900496     0.09000
C1088       C  0.88512722  0.05116547  0.82495651    -0.17800
loop_ 
_geom_bond_atom_site_label_1 
_geom_bond_atom_site_label_2 
_geom_bond_distance 
_geom_bond_site_symmetry_2 
_ccdc_geom_bond_type 
Fe1          O17   2.108       .  S
Fe1           O7   2.058       .  S
Fe1          O14   2.094       .  S
Fe1           O6   2.113       .  S
Fe1          O12   1.968       .  S
Fe2           O5   2.019       .  S
Fe2           O9   2.052       .  S
Fe2         O285   2.027       .  S
Fe2         O290   2.058       .  S
Fe2          O12   1.965       .  S
Fe3          O21   2.064   1_565  S
Fe3          O15   2.078   1_565  S
Fe3           O4   2.053       .  S
Fe3         O280   2.093       .  S
Fe3          O12   1.969       .  S
O4           C11   1.270       .  A
O5           C19   1.255       .  A
O6           C11   1.282       .  A
O7           C10   1.265       .  A
O8         Fe275   2.093   1_554  S
O8           C20   1.275       .  A
O9           C22   1.269       .  A
C10          O15   1.268   1_565  A
C10         C269   1.440   1_565  S
C11         C260   1.448       .  S
O13        Fe274   2.027       .  S
O13         C288   1.255       .  A
O14          C16   1.270       .  A
C16         O285   1.255       .  A
C16         C253   1.437       .  S
O17          C22   1.280       .  A
O18        Fe274   2.058   1_554  S
O18          C20   1.270       .  A
C19          O21   1.264   1_565  A
C19         C261   1.413   1_565  S
C20         C265   1.439       .  S
C22         C252   1.443       .  S
Fe23         O39   2.094       .  S
Fe23         O29   2.114       .  S
Fe23         O36   2.108       .  S
Fe23         O28   2.058       .  S
Fe23         O34   1.965       .  S
Fe24         O35   2.052       .  S
Fe24         O40   2.021       .  S
Fe24        O299   2.058   1_554  S
Fe24        O303   2.028       .  S
Fe24         O34   1.962       .  S
Fe25         O30   2.064       .  S
Fe25         O26   2.079       .  S
Fe25        O315   2.095   1_554  S
Fe25        O309   2.052   1_554  S
Fe25         O34   1.966       .  S
O26          C33   1.268       .  A
O27        Fe296   2.058       .  S
O27          C41   1.270       .  A
O28          C33   1.265       .  A
O29          C32   1.283       .  A
O30          C42   1.264       .  A
O31        Fe296   2.028       .  S
O31         C316   1.256       .  A
C32         O309   1.270   1_554  A
C32         C241   1.448       .  S
C33         C233   1.440       .  S
O35          C38   1.269       .  A
O36          C38   1.280       .  A
O37        Fe297   2.052       .  S
O37         C304   1.270       .  A
C38         C232   1.442       .  S
O39          C44   1.271       .  A
O40          C42   1.255       .  A
C41          O43   1.275       .  A
C41         C237   1.439       .  S
C42         C248   1.413       .  S
O43        Fe297   2.095       .  S
C44         O303   1.256       .  A
C44         C256   1.437       .  S
Fe45         O61   2.108       .  S
Fe45         O51   2.058       .  S
Fe45         O58   2.094       .  S
Fe45         O50   2.113       .  S
Fe45         O56   1.967       .  S
Fe46         O49   2.019       .  S
Fe46         O53   2.052       .  S
Fe46         O57   2.027       .  S
Fe46         O62   2.058       .  S
Fe46         O56   1.964       .  S
Fe47         O65   2.064   1_565  S
Fe47         O52   2.093       .  S
Fe47         O59   2.078   1_565  S
Fe47         O48   2.053       .  S
Fe47         O56   1.968       .  S
O48          C55   1.270       .  A
O49          C63   1.255       .  A
O50          C55   1.282       .  A
O51          C54   1.265       .  A
O52          C64   1.275       .  A
O53          C66   1.269       .  A
C54          O59   1.268   1_565  A
C54         C213   1.440   1_565  S
C55         C224   1.448       .  S
O57          C60   1.255       .  A
O58          C60   1.270       .  A
C60         C212   1.437       .  S
O61          C66   1.280       .  A
O62          C64   1.270       .  A
C63          O65   1.264   1_565  A
C63         C225   1.413   1_565  S
C64         C220   1.439       .  S
C66         C249   1.443       .  S
Fe67         O83   2.094       .  S
Fe67         O73   2.114       .  S
Fe67         O80   2.108       .  S
Fe67         O72   2.058       .  S
Fe67         O78   1.964       .  S
Fe68         O71   2.058       .  S
Fe68         O75   2.028       .  S
Fe68         O79   2.052       .  S
Fe68         O84   2.021       .  S
Fe68         O78   1.962       .  S
Fe69         O87   2.095       .  S
Fe69         O74   2.064       .  S
Fe69         O81   2.052       .  S
Fe69         O70   2.079       .  S
Fe69         O78   1.966       .  S
O70          C77   1.268       .  A
O71          C85   1.270       .  A
O72          C77   1.265       .  A
O73          C76   1.283       .  A
O74          C86   1.264       .  A
O75          C88   1.256       .  A
C76          O81   1.270       .  A
C76         C193   1.448       .  S
C77         C205   1.440       .  S
O79          C82   1.269       .  A
O80          C82   1.280       .  A
C82         C229   1.443       .  S
O83          C88   1.271       .  A
O84          C86   1.255       .  A
C85          O87   1.275       .  A
C85         C204   1.439       .  S
C86         C200   1.413       .  S
C88         C209   1.437       .  S
Fe89        O105   2.108       .  S
Fe89         O95   2.058       .  S
Fe89        O102   2.094       .  S
Fe89         O94   2.113       .  S
Fe89        O100   1.967       .  S
Fe90         O93   2.019       .  S
Fe90         O97   2.052       .  S
Fe90        O101   2.027       .  S
Fe90        O106   2.058       .  S
Fe90        O100   1.964       .  S
Fe91        O109   2.065       .  S
Fe91         O96   2.094       .  S
Fe91        O103   2.078       .  S
Fe91         O92   2.053       .  S
Fe91        O100   1.968       .  S
O92          C99   1.270       .  A
O93         C107   1.255       .  A
O94          C99   1.282       .  A
O95          C98   1.265       .  A
O96         C108   1.275       .  A
O97         C110   1.269       .  A
C98         O103   1.268       .  A
C98         C240   1.440       .  S
C99         C196   1.448       .  S
O101        C104   1.255       .  A
O102        C104   1.270       .  A
C104        C192   1.437       .  S
O105        C110   1.280       .  A
O106        C108   1.270       .  A
C107        O109   1.264       .  A
C107        C197   1.413       .  S
C108        C236   1.439       .  S
C110        C185   1.443       .  S
Fe111       O127   2.094       .  S
Fe111       O117   2.114       .  S
Fe111       O124   2.108       .  S
Fe111       O116   2.058       .  S
Fe111       O122   1.965       .  S
Fe112       O115   2.058       .  S
Fe112       O119   2.028       .  S
Fe112       O123   2.052       .  S
Fe112       O128   2.021       .  S
Fe112       O122   1.962       .  S
Fe113       O131   2.095       .  S
Fe113       O118   2.064       .  S
Fe113       O125   2.052       .  S
Fe113       O114   2.079   1_545  S
Fe113       O122   1.966       .  S
O114        C121   1.268   1_565  A
O115        C129   1.270       .  A
O116        C121   1.265       .  A
O117        C120   1.283       .  A
O118        C130   1.264       .  A
O119        C132   1.256       .  A
C120        O125   1.270       .  A
C120        C221   1.448       .  S
C121        C268   1.440   1_545  S
O123        C126   1.269       .  A
O124        C126   1.280       .  A
C126        C184   1.442       .  S
O127        C132   1.271       .  A
O128        C130   1.255       .  A
C129        O131   1.275       .  A
C129        C272   1.439       .  S
C130        C228   1.413       .  S
C132        C189   1.437       .  S
Fe133       O149   2.094       .  S
Fe133       O139   2.114       .  S
Fe133       O146   2.108       .  S
Fe133       O138   2.058       .  S
Fe133       O144   1.964       .  S
Fe134       O141   2.028       .  S
Fe134       O145   2.051       .  S
Fe134       O150   2.021       .  S
Fe134       O409   2.058   1_554  S
Fe134       O144   1.962       .  S
Fe135       O140   2.064       .  S
Fe135       O136   2.079   1_545  S
Fe135       O425   2.095   1_554  S
Fe135       O419   2.052   1_554  S
Fe135       O144   1.965       .  S
O136        C143   1.268   1_565  A
O137       Fe406   2.058       .  S
O137        C151   1.270       .  A
O138        C143   1.265       .  A
O139        C142   1.283       .  A
O140        C152   1.264       .  A
O141        C154   1.256       .  A
C142        O419   1.270   1_554  A
C142        C257   1.448       .  S
C143        C217   1.440   1_545  S
O145        C148   1.269       .  A
O146        C148   1.280       .  A
O147       Fe407   2.052       .  S
O147        C414   1.270       .  A
C148        C181   1.442       .  S
O149        C154   1.271       .  A
O150        C152   1.255       .  A
C151        O153   1.275       .  A
C151        C216   1.439       .  S
C152        C264   1.413       .  S
O153       Fe407   2.095       .  S
C154        C177   1.437       .  S
Fe155       O171   2.108       .  S
Fe155       O161   2.058       .  S
Fe155       O168   2.094       .  S
Fe155       O160   2.113       .  S
Fe155       O166   1.967       .  S
Fe156       O159   2.019       .  S
Fe156       O163   2.052       .  S
Fe156       O439   2.027       .  S
Fe156       O444   2.058       .  S
Fe156       O166   1.964       .  S
Fe157       O175   2.064       .  S
Fe157       O169   2.078       .  S
Fe157       O158   2.053       .  S
Fe157       O434   2.093       .  S
Fe157       O166   1.968       .  S
O158        C165   1.270       .  A
O159        C173   1.255       .  A
O160        C165   1.282       .  A
O161        C164   1.265       .  A
O162       Fe429   2.093   1_554  S
O162        C174   1.275       .  A
O163        C176   1.269       .  A
C164        O169   1.268       .  A
C164        C201   1.440       .  S
C165        C244   1.448       .  S
O167       Fe428   2.027       .  S
O167        C442   1.255       .  A
O168        C170   1.270       .  A
C170        O439   1.255       .  A
C170        C180   1.437       .  S
O171        C176   1.280       .  A
O172       Fe428   2.058   1_554  S
O172        C174   1.270       .  A
C173        O175   1.264       .  A
C173        C245   1.413       .  S
C174        C208   1.439       .  S
C176        C188   1.443       .  S
C177        C450   1.209       .  T
C178        C449   1.209       .  T
C178        C179   1.419       .  S
C179        C180   1.209       .  T
C181        C182   1.210       .  T
C182        C183   1.420       .  S
C183        C184   1.210       .  T
C185        C186   1.211       .  T
C186        C731   1.420       .  S
C187        C188   1.211       .  T
C187        C730   1.420   1_455  S
C189        C190   1.210       .  T
C190        C191   1.419       .  S
C191        C192   1.210       .  T
C193        C194   1.215       .  T
C194        C195   1.427       .  S
C195        C196   1.215       .  T
C197        C198   1.196       .  T
C198        C743   1.398       .  S
C199        C200   1.196       .  T
C199        C742   1.398   1_455  S
C201        C202   1.209       .  T
C202        C203   1.417       .  S
C203        C204   1.209       .  T
C205        C206   1.209       .  T
C206        C207   1.417       .  S
C207        C208   1.208       .  T
C209        C210   1.209       .  T
C210        C211   1.419       .  S
C211        C212   1.209       .  T
C213        C214   1.209       .  T
C214        C215   1.417       .  S
C215        C216   1.209       .  T
C217        C218   1.209       .  T
C218        C219   1.417       .  S
C219        C220   1.208       .  T
C221        C222   1.215       .  T
C222        C767   1.427   1_545  S
C223        C224   1.215       .  T
C223        C766   1.427   1_465  S
C225        C226   1.196       .  T
C226        C227   1.398       .  S
C227        C228   1.196       .  T
C229        C230   1.210       .  T
C230        C775   1.420   1_455  S
C231        C232   1.210       .  T
C231        C774   1.420       .  S
C233        C234   1.209       .  T
C234        C235   1.417       .  S
C235        C236   1.209       .  T
C237        C238   1.209       .  T
C238        C239   1.417       .  S
C239        C240   1.209       .  T
C241        C514   1.215       .  T
C242        C513   1.215       .  T
C242        C243   1.427       .  S
C243        C244   1.215       .  T
C245        C246   1.196       .  T
C246       C1063   1.398   1_455  S
C247        C248   1.196       .  T
C247       C1062   1.398   1_554  S
C249        C250   1.211       .  T
C250        C251   1.420       .  S
C251        C252   1.211       .  T
C253        C254   1.209       .  T
C254        C255   1.419       .  S
C255        C528   1.210       .  T
C256        C527   1.210       .  T
C257        C530   1.215   1_554  T
C258        C529   1.215       .  T
C258        C803   1.427   1_445  S
C259        C260   1.215       .  T
C259        C802   1.427   1_565  S
C261        C262   1.196       .  T
C262        C535   1.398       .  S
C263        C264   1.196       .  T
C263        C534   1.398   1_554  S
C265        C266   1.209       .  T
C266        C267   1.417       .  S
C267        C268   1.209       .  T
C269        C270   1.209       .  T
C270        C271   1.417       .  S
C271        C272   1.209       .  T
Fe273       O289   2.108       .  S
Fe273       O279   2.058       .  S
Fe273       O286   2.094       .  S
Fe273       O278   2.113       .  S
Fe273       O284   1.968       .  S
Fe274       O277   2.019       .  S
Fe274       O281   2.052       .  S
Fe274       O284   1.965       .  S
Fe275       O293   2.064   1_565  S
Fe275       O287   2.078   1_565  S
Fe275       O276   2.053       .  S
Fe275       O284   1.969       .  S
O276        C283   1.270       .  A
O277        C291   1.255       .  A
O278        C283   1.282       .  A
O279        C282   1.265       .  A
O280        C292   1.275       .  A
O281        C294   1.269       .  A
C282        O287   1.268   1_565  A
C282        C541   1.440   1_565  S
C283        C532   1.448       .  S
O286        C288   1.270       .  A
C288        C525   1.437       .  S
O289        C294   1.280       .  A
O290        C292   1.270       .  A
C291        O293   1.264   1_565  A
C291        C533   1.413   1_565  S
C292        C537   1.439       .  S
C294        C524   1.443       .  S
Fe295       O311   2.094       .  S
Fe295       O301   2.114       .  S
Fe295       O308   2.108       .  S
Fe295       O300   2.058       .  S
Fe295       O306   1.965       .  S
Fe296       O307   2.052       .  S
Fe296       O312   2.021       .  S
Fe296       O306   1.962       .  S
Fe297       O302   2.064       .  S
Fe297       O298   2.079       .  S
Fe297       O306   1.966       .  S
O298        C305   1.268       .  A
O299        C313   1.270       .  A
O300        C305   1.265       .  A
O301        C304   1.283       .  A
O302        C314   1.264       .  A
C304        C513   1.448       .  S
C305        C505   1.440       .  S
O307        C310   1.269       .  A
O308        C310   1.280       .  A
C310        C504   1.443       .  S
O311        C316   1.271       .  A
O312        C314   1.255       .  A
C313        O315   1.275       .  A
C313        C509   1.439       .  S
C314        C520   1.413       .  S
C316        C528   1.437       .  S
Fe317       O333   2.108       .  S
Fe317       O323   2.058       .  S
Fe317       O330   2.094       .  S
Fe317       O322   2.113       .  S
Fe317       O328   1.967       .  S
Fe318       O321   2.019       .  S
Fe318       O325   2.052       .  S
Fe318       O329   2.027       .  S
Fe318       O334   2.058       .  S
Fe318       O328   1.964       .  S
Fe319       O337   2.064   1_565  S
Fe319       O324   2.093       .  S
Fe319       O331   2.078   1_565  S
Fe319       O320   2.053       .  S
Fe319       O328   1.968       .  S
O320        C327   1.270       .  A
O321        C335   1.255       .  A
O322        C327   1.282       .  A
O323        C326   1.265       .  A
O324        C336   1.275       .  A
O325        C338   1.269       .  A
C326        O331   1.268   1_565  A
C326        C485   1.440   1_565  S
C327        C496   1.448       .  S
O329        C332   1.255       .  A
O330        C332   1.270       .  A
C332        C484   1.437       .  S
O333        C338   1.280       .  A
O334        C336   1.270       .  A
C335        O337   1.264   1_565  A
C335        C497   1.413   1_565  S
C336        C492   1.439       .  S
C338        C521   1.443       .  S
Fe339       O355   2.094       .  S
Fe339       O345   2.114       .  S
Fe339       O352   2.108       .  S
Fe339       O344   2.058       .  S
Fe339       O350   1.964       .  S
Fe340       O343   2.058       .  S
Fe340       O347   2.028       .  S
Fe340       O351   2.052       .  S
Fe340       O356   2.021       .  S
Fe340       O350   1.962       .  S
Fe341       O359   2.095       .  S
Fe341       O346   2.064       .  S
Fe341       O353   2.052       .  S
Fe341       O342   2.079       .  S
Fe341       O350   1.966       .  S
O342        C349   1.268       .  A
O343        C357   1.270       .  A
O344        C349   1.265       .  A
O345        C348   1.283       .  A
O346        C358   1.264       .  A
O347        C360   1.256       .  A
C348        O353   1.270       .  A
C348        C465   1.448       .  S
C349        C477   1.440       .  S
O351        C354   1.269       .  A
O352        C354   1.280       .  A
C354        C501   1.443       .  S
O355        C360   1.271       .  A
O356        C358   1.255       .  A
C357        O359   1.275       .  A
C357        C476   1.439       .  S
C358        C472   1.413       .  S
C360        C481   1.437       .  S
Fe361       O377   2.108       .  S
Fe361       O367   2.058       .  S
Fe361       O374   2.094       .  S
Fe361       O366   2.113       .  S
Fe361       O372   1.967       .  S
Fe362       O365   2.019       .  S
Fe362       O369   2.052       .  S
Fe362       O373   2.027       .  S
Fe362       O378   2.058       .  S
Fe362       O372   1.964       .  S
Fe363       O381   2.065       .  S
Fe363       O368   2.094       .  S
Fe363       O375   2.078       .  S
Fe363       O364   2.053       .  S
Fe363       O372   1.968       .  S
O364        C371   1.270       .  A
O365        C379   1.255       .  A
O366        C371   1.282       .  A
O367        C370   1.265       .  A
O368        C380   1.275       .  A
O369        C382   1.269       .  A
C370        O375   1.268       .  A
C370        C512   1.440       .  S
C371        C468   1.448       .  S
O373        C376   1.255       .  A
O374        C376   1.270       .  A
C376        C464   1.437       .  S
O377        C382   1.280       .  A
O378        C380   1.270       .  A
C379        O381   1.264       .  A
C379        C469   1.413       .  S
C380        C508   1.439       .  S
C382        C457   1.443       .  S
Fe383       O399   2.094       .  S
Fe383       O389   2.114       .  S
Fe383       O396   2.108       .  S
Fe383       O388   2.058       .  S
Fe383       O394   1.965       .  S
Fe384       O387   2.058       .  S
Fe384       O391   2.028       .  S
Fe384       O395   2.052       .  S
Fe384       O400   2.021       .  S
Fe384       O394   1.962       .  S
Fe385       O403   2.095       .  S
Fe385       O390   2.064       .  S
Fe385       O397   2.052       .  S
Fe385       O386   2.079   1_545  S
Fe385       O394   1.966       .  S
O386        C393   1.268   1_565  A
O387        C401   1.270       .  A
O388        C393   1.265       .  A
O389        C392   1.283       .  A
O390        C402   1.264       .  A
O391        C404   1.256       .  A
C392        O397   1.270       .  A
C392        C493   1.448       .  S
C393        C540   1.440   1_545  S
O395        C398   1.269       .  A
O396        C398   1.280       .  A
C398        C456   1.442       .  S
O399        C404   1.271       .  A
O400        C402   1.255       .  A
C401        O403   1.275       .  A
C401        C544   1.439       .  S
C402        C500   1.413       .  S
C404        C461   1.437       .  S
Fe405       O421   2.094       .  S
Fe405       O411   2.114       .  S
Fe405       O418   2.108       .  S
Fe405       O410   2.058       .  S
Fe405       O416   1.964       .  S
Fe406       O413   2.028       .  S
Fe406       O417   2.051       .  S
Fe406       O422   2.021       .  S
Fe406       O416   1.962       .  S
Fe407       O412   2.064       .  S
Fe407       O408   2.079   1_545  S
Fe407       O416   1.965       .  S
O408        C415   1.268   1_565  A
O409        C423   1.270       .  A
O410        C415   1.265       .  A
O411        C414   1.283       .  A
O412        C424   1.264       .  A
O413        C426   1.256       .  A
C414        C529   1.448       .  S
C415        C489   1.440   1_545  S
O417        C420   1.269       .  A
O418        C420   1.280       .  A
C420        C453   1.442       .  S
O421        C426   1.271       .  A
O422        C424   1.255       .  A
C423        O425   1.275       .  A
C423        C488   1.439       .  S
C424        C536   1.413       .  S
C426        C449   1.437       .  S
Fe427       O443   2.108       .  S
Fe427       O433   2.058       .  S
Fe427       O440   2.094       .  S
Fe427       O432   2.113       .  S
Fe427       O438   1.967       .  S
Fe428       O431   2.019       .  S
Fe428       O435   2.052       .  S
Fe428       O438   1.964       .  S
Fe429       O447   2.064       .  S
Fe429       O441   2.078       .  S
Fe429       O430   2.053       .  S
Fe429       O438   1.968       .  S
O430        C437   1.270       .  A
O431        C445   1.255       .  A
O432        C437   1.282       .  A
O433        C436   1.265       .  A
O434        C446   1.275       .  A
O435        C448   1.269       .  A
C436        O441   1.268       .  A
C436        C473   1.440       .  S
C437        C516   1.448       .  S
O440        C442   1.270       .  A
C442        C452   1.437       .  S
O443        C448   1.280       .  A
O444        C446   1.270       .  A
C445        O447   1.264       .  A
C445        C517   1.413       .  S
C446        C480   1.439       .  S
C448        C460   1.443       .  S
C450        C451   1.419   1_554  S
C451        C452   1.209       .  T
C453        C454   1.210       .  T
C454        C455   1.420       .  S
C455        C456   1.210       .  T
C457        C458   1.211       .  T
C458       C1003   1.420       .  S
C459        C460   1.211       .  T
C459       C1002   1.420   1_455  S
C461        C462   1.210       .  T
C462        C463   1.419       .  S
C463        C464   1.209       .  T
C465        C466   1.215       .  T
C466        C467   1.427       .  S
C467        C468   1.215       .  T
C469        C470   1.196       .  T
C470       C1015   1.398       .  S
C471        C472   1.196       .  T
C471       C1014   1.398   1_455  S
C473        C474   1.209       .  T
C474        C475   1.417       .  S
C475        C476   1.209       .  T
C477        C478   1.209       .  T
C478        C479   1.417       .  S
C479        C480   1.208       .  T
C481        C482   1.209       .  T
C482        C483   1.419       .  S
C483        C484   1.209       .  T
C485        C486   1.209       .  T
C486        C487   1.417       .  S
C487        C488   1.209       .  T
C489        C490   1.209       .  T
C490        C491   1.417       .  S
C491        C492   1.208       .  T
C493        C494   1.215       .  T
C494       C1039   1.427   1_545  S
C495        C496   1.215       .  T
C495       C1038   1.427   1_465  S
C497        C498   1.196       .  T
C498        C499   1.398       .  S
C499        C500   1.196       .  T
C501        C502   1.210       .  T
C502       C1047   1.420   1_455  S
C503        C504   1.210       .  T
C503       C1046   1.420       .  S
C505        C506   1.209       .  T
C506        C507   1.417       .  S
C507        C508   1.209       .  T
C509        C510   1.209       .  T
C510        C511   1.417       .  S
C511        C512   1.209       .  T
C514        C515   1.427   1_554  S
C515        C516   1.215       .  T
C517        C518   1.196       .  T
C518        C791   1.398   1_456  S
C519        C520   1.196       .  T
C519        C790   1.398       .  S
C521        C522   1.211       .  T
C522        C523   1.420       .  S
C523        C524   1.211       .  T
C525        C526   1.209       .  T
C526        C527   1.419   1_556  S
C530       C1075   1.427   1_445  S
C531        C532   1.215       .  T
C531       C1074   1.427   1_565  S
C533        C534   1.196       .  T
C535        C536   1.196       .  T
C537        C538   1.209       .  T
C538        C539   1.417       .  S
C539        C540   1.209       .  T
C541        C542   1.209       .  T
C542        C543   1.417       .  S
C543        C544   1.209       .  T
Fe545       O561   2.108       .  S
Fe545       O551   2.058       .  S
Fe545       O558   2.094       .  S
Fe545       O550   2.113       .  S
Fe545       O556   1.968       .  S
Fe546       O549   2.019       .  S
Fe546       O553   2.052       .  S
Fe546       O829   2.027       .  S
Fe546       O834   2.058       .  S
Fe546       O556   1.965       .  S
Fe547       O565   2.064   1_565  S
Fe547       O824   2.093       .  S
Fe547       O559   2.078   1_565  S
Fe547       O548   2.053       .  S
Fe547       O556   1.969       .  S
O548        C555   1.270       .  A
O549        C563   1.255       .  A
O550        C555   1.282       .  A
O551        C554   1.265       .  A
O552       Fe819   2.093   1_554  S
O552        C564   1.275       .  A
O553        C566   1.269       .  A
C554        O559   1.268   1_565  A
C554        C813   1.440   1_565  S
C555        C804   1.448       .  S
O557       Fe818   2.027       .  S
O557        C832   1.255       .  A
O558        C560   1.270       .  A
C560        O829   1.255       .  A
C560        C797   1.437       .  S
O561        C566   1.280       .  A
O562       Fe818   2.058   1_554  S
O562        C564   1.270       .  A
C563        O565   1.264   1_565  A
C563        C805   1.413   1_565  S
C564        C809   1.439       .  S
C566        C796   1.443       .  S
Fe567       O583   2.094       .  S
Fe567       O573   2.114       .  S
Fe567       O580   2.108       .  S
Fe567       O572   2.058       .  S
Fe567       O578   1.965       .  S
Fe568       O843   2.058   1_554  S
Fe568       O847   2.028       .  S
Fe568       O579   2.052       .  S
Fe568       O584   2.021       .  S
Fe568       O578   1.962       .  S
Fe569       O859   2.095   1_554  S
Fe569       O574   2.064       .  S
Fe569       O853   2.052   1_554  S
Fe569       O570   2.079       .  S
Fe569       O578   1.966       .  S
O570        C577   1.268       .  A
O571       Fe840   2.058       .  S
O571        C585   1.270       .  A
O572        C577   1.265       .  A
O573        C576   1.283       .  A
O574        C586   1.264       .  A
O575       Fe840   2.028       .  S
O575        C860   1.256       .  A
C576        O853   1.270   1_554  A
C576        C785   1.448       .  S
C577        C777   1.440       .  S
O579        C582   1.269       .  A
O580        C582   1.280       .  A
O581       Fe841   2.052       .  S
O581        C848   1.270       .  A
C582        C776   1.443       .  S
O583        C588   1.271       .  A
O584        C586   1.255       .  A
C585        O587   1.275       .  A
C585        C781   1.439       .  S
C586        C792   1.413       .  S
O587       Fe841   2.095       .  S
C588        O847   1.256       .  A
C588        C800   1.437       .  S
Fe589       O605   2.108       .  S
Fe589       O595   2.058       .  S
Fe589       O602   2.094       .  S
Fe589       O594   2.113       .  S
Fe589       O600   1.967       .  S
Fe590       O593   2.019       .  S
Fe590       O597   2.052       .  S
Fe590       O601   2.027       .  S
Fe590       O606   2.058       .  S
Fe590       O600   1.964       .  S
Fe591       O609   2.064   1_565  S
Fe591       O596   2.093       .  S
Fe591       O603   2.078   1_565  S
Fe591       O592   2.053       .  S
Fe591       O600   1.968       .  S
O592        C599   1.270       .  A
O593        C607   1.255       .  A
O594        C599   1.282       .  A
O595        C598   1.265       .  A
O596        C608   1.275       .  A
O597        C610   1.269       .  A
C598        O603   1.268   1_565  A
C598        C757   1.440   1_565  S
C599        C768   1.448       .  S
O601        C604   1.255       .  A
O602        C604   1.270       .  A
C604        C756   1.437       .  S
O605        C610   1.280       .  A
O606        C608   1.270       .  A
C607        O609   1.264   1_565  A
C607        C769   1.413   1_565  S
C608        C764   1.439       .  S
C610        C793   1.443       .  S
Fe611       O627   2.094       .  S
Fe611       O617   2.114       .  S
Fe611       O624   2.108       .  S
Fe611       O616   2.058       .  S
Fe611       O622   1.964       .  S
Fe612       O615   2.058       .  S
Fe612       O619   2.028       .  S
Fe612       O623   2.052       .  S
Fe612       O628   2.021       .  S
Fe612       O622   1.962       .  S
Fe613       O631   2.095       .  S
Fe613       O618   2.064       .  S
Fe613       O625   2.052       .  S
Fe613       O614   2.079       .  S
Fe613       O622   1.966       .  S
O614        C621   1.268       .  A
O615        C629   1.270       .  A
O616        C621   1.265       .  A
O617        C620   1.283       .  A
O618        C630   1.264       .  A
O619        C632   1.256       .  A
C620        O625   1.270       .  A
C620        C737   1.448       .  S
C621        C749   1.440       .  S
O623        C626   1.269       .  A
O624        C626   1.280       .  A
C626        C773   1.443       .  S
O627        C632   1.271       .  A
O628        C630   1.255       .  A
C629        O631   1.275       .  A
C629        C748   1.439       .  S
C630        C744   1.413       .  S
C632        C753   1.437       .  S
Fe633       O649   2.108       .  S
Fe633       O639   2.058       .  S
Fe633       O646   2.094       .  S
Fe633       O638   2.113       .  S
Fe633       O644   1.967       .  S
Fe634       O637   2.019       .  S
Fe634       O641   2.052       .  S
Fe634       O645   2.027       .  S
Fe634       O650   2.058       .  S
Fe634       O644   1.964       .  S
Fe635       O653   2.065       .  S
Fe635       O640   2.094       .  S
Fe635       O647   2.078       .  S
Fe635       O636   2.053       .  S
Fe635       O644   1.968       .  S
O636        C643   1.270       .  A
O637        C651   1.255       .  A
O638        C643   1.282       .  A
O639        C642   1.265       .  A
O640        C652   1.275       .  A
O641        C654   1.269       .  A
C642        O647   1.268       .  A
C642        C784   1.440       .  S
C643        C740   1.448       .  S
O645        C648   1.255       .  A
O646        C648   1.270       .  A
C648        C736   1.437       .  S
O649        C654   1.280       .  A
O650        C652   1.270       .  A
C651        O653   1.264       .  A
C651        C741   1.413       .  S
C652        C780   1.439       .  S
C654        C729   1.443       .  S
Fe655       O671   2.094       .  S
Fe655       O661   2.114       .  S
Fe655       O668   2.108       .  S
Fe655       O660   2.058       .  S
Fe655       O666   1.965       .  S
Fe656       O659   2.058       .  S
Fe656       O663   2.028       .  S
Fe656       O667   2.052       .  S
Fe656       O672   2.021       .  S
Fe656       O666   1.962       .  S
Fe657       O675   2.095       .  S
Fe657       O662   2.064       .  S
Fe657       O669   2.052       .  S
Fe657       O658   2.079   1_545  S
Fe657       O666   1.966       .  S
O658        C665   1.268   1_565  A
O659        C673   1.270       .  A
O660        C665   1.265       .  A
O661        C664   1.283       .  A
O662        C674   1.264       .  A
O663        C676   1.256       .  A
C664        O669   1.270       .  A
C664        C765   1.448       .  S
C665        C812   1.440   1_545  S
O667        C670   1.269       .  A
O668        C670   1.280       .  A
C670        C728   1.442       .  S
O671        C676   1.271       .  A
O672        C674   1.255       .  A
C673        O675   1.275       .  A
C673        C816   1.439       .  S
C674        C772   1.413       .  S
C676        C733   1.437       .  S
Fe677       O693   2.094       .  S
Fe677       O683   2.114       .  S
Fe677       O690   2.108       .  S
Fe677       O682   2.058       .  S
Fe677       O688   1.964       .  S
Fe678       O953   2.058   1_554  S
Fe678       O685   2.028       .  S
Fe678       O689   2.051       .  S
Fe678       O694   2.021       .  S
Fe678       O688   1.962       .  S
Fe679       O969   2.095   1_554  S
Fe679       O684   2.064       .  S
Fe679       O963   2.052   1_554  S
Fe679       O680   2.079   1_545  S
Fe679       O688   1.965       .  S
O680        C687   1.268   1_565  A
O681       Fe950   2.058       .  S
O681        C695   1.270       .  A
O682        C687   1.265       .  A
O683        C686   1.283       .  A
O684        C696   1.264       .  A
O685        C698   1.256       .  A
C686        O963   1.270   1_554  A
C686        C801   1.448       .  S
C687        C761   1.440   1_545  S
O689        C692   1.269       .  A
O690        C692   1.280       .  A
O691       Fe951   2.052       .  S
O691        C958   1.270       .  A
C692        C725   1.442       .  S
O693        C698   1.271       .  A
O694        C696   1.255       .  A
C695        O697   1.275       .  A
C695        C760   1.439       .  S
C696        C808   1.413       .  S
O697       Fe951   2.095       .  S
C698        C721   1.437       .  S
Fe699       O715   2.108       .  S
Fe699       O705   2.058       .  S
Fe699       O712   2.094       .  S
Fe699       O704   2.113       .  S
Fe699       O710   1.967       .  S
Fe700       O703   2.019       .  S
Fe700       O707   2.052       .  S
Fe700       O983   2.027       .  S
Fe700       O988   2.058       .  S
Fe700       O710   1.964       .  S
Fe701       O719   2.064       .  S
Fe701       O978   2.093       .  S
Fe701       O713   2.078       .  S
Fe701       O702   2.053       .  S
Fe701       O710   1.968       .  S
O702        C709   1.270       .  A
O703        C717   1.255       .  A
O704        C709   1.282       .  A
O705        C708   1.265       .  A
O706       Fe973   2.093   1_554  S
O706        C718   1.275       .  A
O707        C720   1.269       .  A
C708        O713   1.268       .  A
C708        C745   1.440       .  S
C709        C788   1.448       .  S
O711       Fe972   2.027       .  S
O711        C986   1.255       .  A
O712        C714   1.270       .  A
C714        O983   1.255       .  A
C714        C724   1.437       .  S
O715        C720   1.280       .  A
O716       Fe972   2.058   1_554  S
O716        C718   1.270       .  A
C717        O719   1.264       .  A
C717        C789   1.413       .  S
C718        C752   1.439       .  S
C720        C732   1.443       .  S
C721        C994   1.209       .  T
C722        C993   1.209       .  T
C722        C723   1.419       .  S
C723        C724   1.209       .  T
C725        C726   1.210       .  T
C726        C727   1.420       .  S
C727        C728   1.210       .  T
C729        C730   1.211       .  T
C731        C732   1.211       .  T
C733        C734   1.210       .  T
C734        C735   1.419       .  S
C735        C736   1.210       .  T
C737        C738   1.215       .  T
C738        C739   1.427       .  S
C739        C740   1.215       .  T
C741        C742   1.196       .  T
C743        C744   1.196       .  T
C745        C746   1.209       .  T
C746        C747   1.417       .  S
C747        C748   1.209       .  T
C749        C750   1.209       .  T
C750        C751   1.417       .  S
C751        C752   1.208       .  T
C753        C754   1.209       .  T
C754        C755   1.419       .  S
C755        C756   1.209       .  T
C757        C758   1.209       .  T
C758        C759   1.417       .  S
C759        C760   1.209       .  T
C761        C762   1.209       .  T
C762        C763   1.417       .  S
C763        C764   1.208       .  T
C765        C766   1.215       .  T
C767        C768   1.215       .  T
C769        C770   1.196       .  T
C770        C771   1.398       .  S
C771        C772   1.196       .  T
C773        C774   1.210       .  T
C775        C776   1.210       .  T
C777        C778   1.209       .  T
C778        C779   1.417       .  S
C779        C780   1.209       .  T
C781        C782   1.209       .  T
C782        C783   1.417       .  S
C783        C784   1.209       .  T
C785       C1058   1.215       .  T
C786       C1057   1.215       .  T
C786        C787   1.427       .  S
C787        C788   1.215       .  T
C789        C790   1.196       .  T
C791        C792   1.196       .  T
C793        C794   1.211       .  T
C794        C795   1.420       .  S
C795        C796   1.211       .  T
C797        C798   1.209       .  T
C798        C799   1.419       .  S
C799       C1072   1.210       .  T
C800       C1071   1.210       .  T
C801       C1074   1.215   1_554  T
C802       C1073   1.215       .  T
C803        C804   1.215       .  T
C805        C806   1.196       .  T
C806       C1079   1.398       .  S
C807        C808   1.196       .  T
C807       C1078   1.398   1_554  S
C809        C810   1.209       .  T
C810        C811   1.417       .  S
C811        C812   1.209       .  T
C813        C814   1.209       .  T
C814        C815   1.417       .  S
C815        C816   1.209       .  T
Fe817       O833   2.108       .  S
Fe817       O823   2.058       .  S
Fe817       O830   2.094       .  S
Fe817       O822   2.113       .  S
Fe817       O828   1.968       .  S
Fe818       O821   2.019       .  S
Fe818       O825   2.052       .  S
Fe818       O828   1.965       .  S
Fe819       O837   2.064   1_565  S
Fe819       O831   2.078   1_565  S
Fe819       O820   2.053       .  S
Fe819       O828   1.969       .  S
O820        C827   1.270       .  A
O821        C835   1.255       .  A
O822        C827   1.282       .  A
O823        C826   1.265       .  A
O824        C836   1.275       .  A
O825        C838   1.269       .  A
C826        O831   1.268   1_565  A
C826       C1085   1.440   1_565  S
C827       C1076   1.448       .  S
O830        C832   1.270       .  A
C832       C1069   1.437       .  S
O833        C838   1.280       .  A
O834        C836   1.270       .  A
C835        O837   1.264   1_565  A
C835       C1077   1.413   1_565  S
C836       C1081   1.439       .  S
C838       C1068   1.443       .  S
Fe839       O855   2.094       .  S
Fe839       O845   2.114       .  S
Fe839       O852   2.108       .  S
Fe839       O844   2.058       .  S
Fe839       O850   1.965       .  S
Fe840       O851   2.052       .  S
Fe840       O856   2.021       .  S
Fe840       O850   1.962       .  S
Fe841       O846   2.064       .  S
Fe841       O842   2.079       .  S
Fe841       O850   1.966       .  S
O842        C849   1.268       .  A
O843        C857   1.270       .  A
O844        C849   1.265       .  A
O845        C848   1.283       .  A
O846        C858   1.264       .  A
C848       C1057   1.448       .  S
C849       C1049   1.440       .  S
O851        C854   1.269       .  A
O852        C854   1.280       .  A
C854       C1048   1.442       .  S
O855        C860   1.271       .  A
O856        C858   1.255       .  A
C857        O859   1.275       .  A
C857       C1053   1.439       .  S
C858       C1064   1.413       .  S
C860       C1072   1.437       .  S
Fe861       O877   2.108       .  S
Fe861       O867   2.058       .  S
Fe861       O874   2.094       .  S
Fe861       O866   2.113       .  S
Fe861       O872   1.967       .  S
Fe862       O865   2.019       .  S
Fe862       O869   2.052       .  S
Fe862       O873   2.027       .  S
Fe862       O878   2.058       .  S
Fe862       O872   1.964       .  S
Fe863       O881   2.064   1_565  S
Fe863       O868   2.093       .  S
Fe863       O875   2.078   1_565  S
Fe863       O864   2.053       .  S
Fe863       O872   1.968       .  S
O864        C871   1.270       .  A
O865        C879   1.255       .  A
O866        C871   1.282       .  A
O867        C870   1.265       .  A
O868        C880   1.275       .  A
O869        C882   1.269       .  A
C870        O875   1.268   1_565  A
C870       C1029   1.440   1_565  S
C871       C1040   1.448       .  S
O873        C876   1.255       .  A
O874        C876   1.270       .  A
C876       C1028   1.437       .  S
O877        C882   1.280       .  A
O878        C880   1.270       .  A
C879        O881   1.264   1_565  A
C879       C1041   1.413   1_565  S
C880       C1036   1.439       .  S
C882       C1065   1.443       .  S
Fe883       O899   2.094       .  S
Fe883       O889   2.114       .  S
Fe883       O896   2.108       .  S
Fe883       O888   2.058       .  S
Fe883       O894   1.964       .  S
Fe884       O887   2.058       .  S
Fe884       O891   2.028       .  S
Fe884       O895   2.052       .  S
Fe884       O900   2.021       .  S
Fe884       O894   1.962       .  S
Fe885       O903   2.095       .  S
Fe885       O890   2.064       .  S
Fe885       O897   2.052       .  S
Fe885       O886   2.079       .  S
Fe885       O894   1.966       .  S
O886        C893   1.268       .  A
O887        C901   1.270       .  A
O888        C893   1.265       .  A
O889        C892   1.283       .  A
O890        C902   1.264       .  A
O891        C904   1.256       .  A
C892        O897   1.270       .  A
C892       C1009   1.448       .  S
C893       C1021   1.440       .  S
O895        C898   1.269       .  A
O896        C898   1.280       .  A
C898       C1045   1.443       .  S
O899        C904   1.271       .  A
O900        C902   1.255       .  A
C901        O903   1.275       .  A
C901       C1020   1.439       .  S
C902       C1016   1.413       .  S
C904       C1025   1.437       .  S
Fe905       O921   2.108       .  S
Fe905       O911   2.058       .  S
Fe905       O918   2.094       .  S
Fe905       O910   2.113       .  S
Fe905       O916   1.967       .  S
Fe906       O909   2.019       .  S
Fe906       O913   2.052       .  S
Fe906       O917   2.027       .  S
Fe906       O922   2.058       .  S
Fe906       O916   1.964       .  S
Fe907       O925   2.065       .  S
Fe907       O912   2.094       .  S
Fe907       O919   2.078       .  S
Fe907       O908   2.053       .  S
Fe907       O916   1.968       .  S
O908        C915   1.270       .  A
O909        C923   1.255       .  A
O910        C915   1.282       .  A
O911        C914   1.265       .  A
O912        C924   1.275       .  A
O913        C926   1.269       .  A
C914        O919   1.268       .  A
C914       C1056   1.440       .  S
C915       C1012   1.448       .  S
O917        C920   1.255       .  A
O918        C920   1.270       .  A
C920       C1008   1.437       .  S
O921        C926   1.280       .  A
O922        C924   1.270       .  A
C923        O925   1.264       .  A
C923       C1013   1.413       .  S
C924       C1052   1.439       .  S
C926       C1001   1.443       .  S
Fe927       O943   2.094       .  S
Fe927       O933   2.114       .  S
Fe927       O940   2.108       .  S
Fe927       O932   2.058       .  S
Fe927       O938   1.965       .  S
Fe928       O931   2.058       .  S
Fe928       O935   2.028       .  S
Fe928       O939   2.052       .  S
Fe928       O944   2.021       .  S
Fe928       O938   1.962       .  S
Fe929       O947   2.095       .  S
Fe929       O934   2.064       .  S
Fe929       O941   2.052       .  S
Fe929       O930   2.079   1_545  S
Fe929       O938   1.966       .  S
O930        C937   1.268   1_565  A
O931        C945   1.270       .  A
O932        C937   1.265       .  A
O933        C936   1.283       .  A
O934        C946   1.264       .  A
O935        C948   1.256       .  A
C936        O941   1.270       .  A
C936       C1037   1.448       .  S
C937       C1084   1.440   1_545  S
O939        C942   1.269       .  A
O940        C942   1.280       .  A
C942       C1000   1.442       .  S
O943        C948   1.271       .  A
O944        C946   1.255       .  A
C945        O947   1.275       .  A
C945       C1088   1.439       .  S
C946       C1044   1.413       .  S
C948       C1005   1.437       .  S
Fe949       O965   2.094       .  S
Fe949       O955   2.114       .  S
Fe949       O962   2.108       .  S
Fe949       O954   2.058       .  S
Fe949       O960   1.964       .  S
Fe950       O957   2.028       .  S
Fe950       O961   2.051       .  S
Fe950       O966   2.021       .  S
Fe950       O960   1.962       .  S
Fe951       O956   2.064       .  S
Fe951       O952   2.079   1_545  S
Fe951       O960   1.965       .  S
O952        C959   1.268   1_565  A
O953        C967   1.270       .  A
O954        C959   1.265       .  A
O955        C958   1.283       .  A
O956        C968   1.264       .  A
O957        C970   1.256       .  A
C958       C1073   1.448       .  S
C959       C1033   1.440   1_545  S
O961        C964   1.269       .  A
O962        C964   1.280       .  A
C964        C997   1.442       .  S
O965        C970   1.271       .  A
O966        C968   1.255       .  A
C967        O969   1.275       .  A
C967       C1032   1.439       .  S
C968       C1080   1.413       .  S
C970        C993   1.437       .  S
Fe971       O987   2.108       .  S
Fe971       O977   2.058       .  S
Fe971       O984   2.094       .  S
Fe971       O976   2.113       .  S
Fe971       O982   1.967       .  S
Fe972       O975   2.019       .  S
Fe972       O979   2.052       .  S
Fe972       O982   1.964       .  S
Fe973       O991   2.064       .  S
Fe973       O985   2.078       .  S
Fe973       O974   2.053       .  S
Fe973       O982   1.968       .  S
O974        C981   1.270       .  A
O975        C989   1.255       .  A
O976        C981   1.282       .  A
O977        C980   1.265       .  A
O978        C990   1.275       .  A
O979        C992   1.269       .  A
C980        O985   1.268       .  A
C980       C1017   1.440       .  S
C981       C1060   1.448       .  S
O984        C986   1.270       .  A
C986        C996   1.437       .  S
O987        C992   1.280       .  A
O988        C990   1.270       .  A
C989        O991   1.264       .  A
C989       C1061   1.413       .  S
C990       C1024   1.439       .  S
C992       C1004   1.443       .  S
C994        C995   1.419   1_554  S
C995        C996   1.209       .  T
C997        C998   1.210       .  T
C998        C999   1.420       .  S
C999       C1000   1.210       .  T
C1001      C1002   1.211       .  T
C1003      C1004   1.211       .  T
C1005      C1006   1.210       .  T
C1006      C1007   1.419       .  S
C1007      C1008   1.209       .  T
C1009      C1010   1.215       .  T
C1010      C1011   1.427       .  S
C1011      C1012   1.215       .  T
C1013      C1014   1.196       .  T
C1015      C1016   1.196       .  T
C1017      C1018   1.209       .  T
C1018      C1019   1.417       .  S
C1019      C1020   1.209       .  T
C1021      C1022   1.209       .  T
C1022      C1023   1.417       .  S
C1023      C1024   1.208       .  T
C1025      C1026   1.209       .  T
C1026      C1027   1.419       .  S
C1027      C1028   1.209       .  T
C1029      C1030   1.209       .  T
C1030      C1031   1.417       .  S
C1031      C1032   1.209       .  T
C1033      C1034   1.209       .  T
C1034      C1035   1.417       .  S
C1035      C1036   1.208       .  T
C1037      C1038   1.215       .  T
C1039      C1040   1.215       .  T
C1041      C1042   1.196       .  T
C1042      C1043   1.398       .  S
C1043      C1044   1.196       .  T
C1045      C1046   1.210       .  T
C1047      C1048   1.210       .  T
C1049      C1050   1.209       .  T
C1050      C1051   1.417       .  S
C1051      C1052   1.209       .  T
C1053      C1054   1.209       .  T
C1054      C1055   1.417       .  S
C1055      C1056   1.209       .  T
C1058      C1059   1.427   1_554  S
C1059      C1060   1.215       .  T
C1061      C1062   1.196       .  T
C1063      C1064   1.196       .  T
C1065      C1066   1.211       .  T
C1066      C1067   1.420       .  S
C1067      C1068   1.211       .  T
C1069      C1070   1.209       .  T
C1070      C1071   1.419   1_556  S
C1075      C1076   1.215       .  T
C1077      C1078   1.196       .  T
C1079      C1080   1.196       .  T
C1081      C1082   1.209       .  T
C1082      C1083   1.417       .  S
C1083      C1084   1.209       .  T
C1085      C1086   1.209       .  T
C1086      C1087   1.417       .  S
C1087      C1088   1.209       .  T
