geometry optimzed in LAMMPS
_audit_creation_date              2020-12-01 
_audit_creation_method            'lammps2cif' 
_symmetry_space_group_name_H-M    'P1' 
_symmetry_Int_Tables_number       1 
_symmetry_cell_setting            triclinic 
loop_ 
_symmetry_equiv_pos_as_xyz 
  x,y,z 
_cell_length_a                    25.83201292 
_cell_length_b                    29.106940103770153 
_cell_length_c                    48.36301569015123 
_cell_angle_alpha                 89.98791537141113 
_cell_angle_beta                  89.97165986851769 
_cell_angle_gamma                 89.86592381634935 
loop_ 
_atom_site_label 
_atom_site_type_symbol 
_atom_site_fract_x 
_atom_site_fract_y 
_atom_site_fract_z 
_atom_site_charge 
O1          O  0.13353481  0.12401578  0.86916296    -0.85200
O2          O  0.10252542  0.12290671  0.92220951    -0.82300
C3          C  0.09634762  0.13412995  0.94701975     0.98200
O4          O  0.09673980  0.17626133  0.95416927    -0.82300
O5          O  0.19604114  0.20460957  0.94699091    -0.85000
C6          C  0.23817288  0.21546907  0.93592523     1.02800
O7          O  0.23938156  0.22629045  0.91048861    -0.77700
O8          O  0.20854056  0.14957782  0.88255397    -0.77900
C9          C  0.18084012  0.11649008  0.87493463     1.02700
O10         O  0.06609963  0.20410886  0.86060920    -0.85200
O11         O  0.02762933  0.19386314  0.91470739    -0.82300
C12         C  0.02448245  0.23338540  0.92579153     0.98200
O13         O  0.06351844  0.25885653  0.92522718    -0.82300
O14         O  0.16439684  0.29008986  0.92144053    -0.84900
C15         C  0.17209876  0.30559262  0.89713967     1.02700
O16         O  0.16891682  0.27887762  0.87677773    -0.77700
O17         O  0.14558428  0.20454193  0.84462938    -0.77900
C18         C  0.09729619  0.21103401  0.84099638     1.02700
Cr19       Cr  0.08553947  0.16442560  0.89202538     1.93700
Cr20       Cr  0.13031495  0.23076495  0.93462545     1.93200
Cr21       Cr  0.18690328  0.21384884  0.88002626     1.39100
O22         O  0.13423526  0.20325663  0.90229965    -1.23000
O23         O  0.80931326  0.85630613  0.11253727    -0.85200
O24         O  0.78024205  0.78189985  0.08165762    -0.82300
C25         C  0.78253880  0.79591001  0.05673691     0.98200
O26         O  0.82514056  0.80961634  0.04731612    -0.82300
O27         O  0.92844779  0.83243703  0.04099655    -0.85000
C28         C  0.93228839  0.87370689  0.04930333     1.02800
O29         O  0.91656427  0.88410856  0.07290634    -0.77700
O30         O  0.88436857  0.88254002  0.12577478    -0.77900
C31         C  0.83643989  0.88897215  0.12117491     1.02700
O32         O  0.87134498  0.79954514  0.14967210    -0.85200
O33         O  0.84861175  0.72622772  0.11491711    -0.82300
C34         C  0.84389355  0.70245408  0.09331227     0.98200
O35         O  0.85119978  0.72055462  0.06965705    -0.82300
O36         O  0.95379459  0.74750284  0.06830669    -0.84900
C37         C  0.99389596  0.77152756  0.07052081     1.02700
O38         O  0.99078821  0.81103300  0.08170953    -0.77700
O39         O  0.95107754  0.80282962  0.13430845    -0.77900
C40         C  0.91997416  0.79625341  0.15383767     1.02700
Cr41       Cr  0.83113692  0.79192020  0.11345296     1.93700
Cr42       Cr  0.88907563  0.77914135  0.05886402     1.93200
Cr43       Cr  0.93258845  0.84223413  0.10313014     1.39100
O44         O  0.88463437  0.80382783  0.09201285    -1.23000
O45         O  0.31024397  0.64832224  0.87987633    -0.85200
O46         O  0.28214419  0.72431974  0.91019626    -0.82300
C47         C  0.28454784  0.71174277  0.93538645     0.98200
O48         O  0.32737590  0.69930713  0.94522511    -0.82300
O49         O  0.42964606  0.67353066  0.95082378    -0.85000
C50         C  0.43187555  0.63167457  0.94332110     1.02800
O51         O  0.41849165  0.62063109  0.91933614    -0.77700
O52         O  0.38525466  0.62214363  0.86630427    -0.77900
C53         C  0.33763841  0.61543327  0.87137302     1.02700
O54         O  0.37231934  0.70419289  0.84210440    -0.85200
O55         O  0.35066172  0.77817000  0.87592855    -0.82300
C56         C  0.34765156  0.80341496  0.89697152     0.98200
O57         O  0.35524784  0.78640958  0.92090321    -0.82300
O58         O  0.45712990  0.75678864  0.92185926    -0.84900
C59         C  0.49681174  0.73197052  0.92018462     1.02700
O60         O  0.49295026  0.69199143  0.90979488    -0.77700
O61         O  0.45218471  0.70090458  0.85726684    -0.77900
C62         C  0.42085051  0.70808166  0.83788729     1.02700
Cr63       Cr  0.33257574  0.71276168  0.87836538     1.93700
Cr64       Cr  0.39183219  0.72728338  0.93239696     1.93200
Cr65       Cr  0.43398555  0.66189429  0.88871168     1.39100
O66         O  0.38622921  0.70095620  0.89976430    -1.23000
O67         O  0.62664551  0.38519031  0.12525610    -0.85200
O68         O  0.59115714  0.38039269  0.07295970    -0.82300
C69         C  0.58233131  0.36640937  0.04888457     0.98200
O70         O  0.58534438  0.32374916  0.04321281    -0.82300
O71         O  0.68685678  0.29941429  0.04938079    -0.85000
C72         C  0.73006799  0.29044186  0.05992008     1.02800
O73         O  0.73308903  0.28068350  0.08549949    -0.77700
O74         O  0.70180858  0.35940304  0.11177133    -0.77900
C75         C  0.67323980  0.39279831  0.11817781     1.02700
O76         O  0.56294548  0.30470766  0.13800430    -0.85200
O77         O  0.52052152  0.30815965  0.08510266    -0.82300
C78         C  0.51846007  0.26736055  0.07593707     0.98200
O79         O  0.55873960  0.24318466  0.07618586    -0.82300
O80         O  0.66075334  0.21551334  0.07796436    -0.84900
C81         C  0.67033243  0.20181889  0.10246471     1.02700
O82         O  0.66696702  0.22971342  0.12219965    -0.77700
O83         O  0.64334384  0.30649278  0.15248663    -0.77900
C84         C  0.59555683  0.29919541  0.15704479     1.02700
Cr85       Cr  0.57862074  0.34155106  0.10504850     1.93700
Cr86       Cr  0.62308398  0.27241773  0.06391338     1.93200
Cr87       Cr  0.68249919  0.29495103  0.11667338     1.39100
O88         O  0.62810073  0.30287641  0.09515047    -1.23000
O89         O  0.88417770  0.13417622  0.62900100    -0.85200
O90         O  0.91795625  0.12882252  0.57600541    -0.82300
C91         C  0.92683080  0.13879336  0.55118889     0.98200
O92         O  0.92738629  0.18059759  0.54348831    -0.82300
O93         O  0.82736756  0.20906025  0.54920570    -0.85000
C94         C  0.78462713  0.22112965  0.55909239     1.02800
O95         O  0.78249935  0.23583404  0.58385865    -0.77700
O96         O  0.81012172  0.16092756  0.61466077    -0.77900
C97         C  0.83684835  0.12772500  0.62322972     1.02700
O98         O  0.95289829  0.21226388  0.63688077    -0.85200
O99         O  0.99291651  0.19938815  0.58418439    -0.82300
C100        C  0.99795251  0.23851896  0.57291443     0.98200
O101        O  0.95924165  0.26445865  0.57069786    -0.82300
O102        O  0.85793256  0.29640276  0.57209014    -0.84900
C103        C  0.85016098  0.31431679  0.59576079     1.02700
O104        O  0.85258081  0.28987383  0.61713269    -0.77700
O105        O  0.87290588  0.21722477  0.65182227    -0.77900
C106        C  0.92140129  0.22109198  0.65603868     1.02700
Cr107      Cr  0.93381649  0.17179707  0.60596413     1.93700
Cr108      Cr  0.89260504  0.23614561  0.56128230     1.93200
Cr109      Cr  0.83333207  0.22485404  0.61556121     1.39100
O110        O  0.88679010  0.21128750  0.59429828    -1.23000
O111        O  0.21075181  0.86395068  0.38212224    -0.85200
O112        O  0.23798387  0.78773937  0.41111869    -0.82300
C113        C  0.23438714  0.80146962  0.43600230     0.98200
O114        O  0.19097268  0.81179836  0.44590816    -0.82300
O115        O  0.08766675  0.83571208  0.45078598    -0.85000
C116        C  0.08416087  0.87766498  0.44355489     1.02800
O117        O  0.10058286  0.88978802  0.42034238    -0.77700
O118        O  0.13671677  0.89105019  0.36815881    -0.77900
C119        C  0.18353580  0.89773639  0.37496390     1.02700
O120        O  0.15141918  0.80972901  0.34240253    -0.85200
O121        O  0.17185688  0.73437272  0.37563651    -0.82300
C122        C  0.17632808  0.70864288  0.39646149     0.98200
O123        O  0.16617370  0.72471969  0.42039338    -0.82300
O124        O  0.06298157  0.75307660  0.42075846    -0.84900
C125        C  0.02335050  0.77801624  0.41887823     1.02700
O126        O  0.02750068  0.81790060  0.40837497    -0.77700
O127        O  0.07057975  0.81244844  0.35626607    -0.77900
C128        C  0.10316349  0.80711468  0.33725094     1.02700
Cr129      Cr  0.18907167  0.79975335  0.37901711     1.93700
Cr130      Cr  0.12761015  0.78303387  0.43217645     1.93200
Cr131      Cr  0.08696128  0.84977124  0.38878264     1.39100
O132        O  0.13425612  0.81033951  0.39984672    -1.23000
O133        O  0.71202711  0.66438636  0.60682832    -0.85200
O134        O  0.73475609  0.74433240  0.58032893    -0.82300
C135        C  0.73135186  0.73446631  0.55474650     0.98200
O136        O  0.68812765  0.72443828  0.54452265    -0.82300
O137        O  0.58811181  0.69522476  0.53924575    -0.85000
C138        C  0.59064077  0.65226556  0.54382910     1.02800
O139        O  0.60379408  0.63766886  0.56718861    -0.77700
O140        O  0.63965001  0.63254324  0.61964617    -0.77900
C141        C  0.68702786  0.62895596  0.61296595     1.02700
O142        O  0.64928800  0.71200890  0.64818162    -0.85200
O143        O  0.66550076  0.79100337  0.61825872    -0.82300
C144        C  0.66658366  0.81929014  0.59866628     0.98200
O145        O  0.65745868  0.80569735  0.57415023    -0.82300
O146        O  0.55710174  0.77186854  0.57361567    -0.84900
C147        C  0.51934138  0.74468805  0.57321267     1.02700
O148        O  0.52601918  0.70372946  0.58149749    -0.77700
O149        O  0.56868211  0.70655657  0.63411449    -0.77900
C150        C  0.60088588  0.71221286  0.65329700     1.02700
Cr151      Cr  0.68654188  0.72706265  0.61209813     1.93700
Cr152      Cr  0.62326887  0.74739201  0.56011400     1.93200
Cr153      Cr  0.58752560  0.67339938  0.60027441     1.39100
O154        O  0.63243875  0.71616783  0.59089500    -1.23000
O155        O  0.38704192  0.38650959  0.36512287    -0.85200
O156        O  0.42066360  0.39411528  0.41700443    -0.82300
C157        C  0.43165092  0.38716823  0.44183558     0.98200
O158        O  0.42882835  0.34653174  0.45149945    -0.82300
O159        O  0.32697687  0.32224245  0.44573652    -0.85000
C160        C  0.28533356  0.30473977  0.43797257     1.02800
O161        O  0.28159784  0.29047000  0.41319522    -0.77700
O162        O  0.31120242  0.36452944  0.38038097    -0.77900
C163        C  0.34012151  0.39557066  0.37097099     1.02700
O164        O  0.45168305  0.30443916  0.35950581    -0.85200
O165        O  0.49341903  0.31971992  0.41160827    -0.82300
C166        C  0.49578255  0.28123389  0.42402896     0.98200
O167        O  0.45521877  0.25830816  0.42710285    -0.82300
O168        O  0.35390337  0.23043087  0.42618671    -0.84900
C169        C  0.34553868  0.21103206  0.40295188     1.02700
O170        O  0.34931209  0.23398252  0.38096092    -0.77700
O171        O  0.37151073  0.30381620  0.34454512    -0.77900
C172        C  0.41964372  0.29673228  0.34051390     1.02700
Cr173      Cr  0.43516412  0.34833255  0.38890646     1.93700
Cr174      Cr  0.39078299  0.29073755  0.43541662     1.93200
Cr175      Cr  0.33194741  0.29946609  0.38095830     1.39100
O176        O  0.38627650  0.31233171  0.40167620    -1.23000
C177        C  0.47691892  0.46902901  0.49919702    -0.22300
C178        C  0.49558261  0.50569430  0.48315653     0.09600
C179        C  0.49269631  0.50337699  0.45419072     0.10000
C180        C  0.47122332  0.46448307  0.44184896    -0.17300
C181        C  0.45246811  0.42713834  0.45758497    -0.27700
C182        C  0.45528765  0.42966120  0.48677574     0.18400
C183        C  0.52041148  0.54537537  0.49688105     0.12300
C184        C  0.51327520  0.54156247  0.43620629    -0.12000
H185        H  0.47016249  0.46314475  0.41947065     0.12600
C186        C  0.43499734  0.39176037  0.50491407    -0.22900
H187        H  0.47956364  0.47122675  0.52152465     0.08200
C188        C  0.49459189  0.58783443  0.50060818     0.04600
C189        C  0.52062573  0.62408383  0.51368013    -0.20100
C190        C  0.57116363  0.61839395  0.52377250    -0.12400
C191        C  0.59760452  0.57649742  0.51905856     0.13300
C192        C  0.57194109  0.54062009  0.50546050    -0.22800
C193        C  0.43927856  0.59557795  0.49183045    -0.05900
H194        H  0.50006245  0.65597210  0.51762692     0.14800
C195        C  0.65290281  0.56954953  0.52825040    -0.16100
H196        H  0.59184626  0.50831538  0.50188527     0.09100
H197        H  0.43866633  0.40036390  0.52720017     0.07000
H198        H  0.45716722  0.35965403  0.50117683     0.08200
H199        H  0.39340937  0.38605348  0.50041247     0.07200
H200        H  0.55508522  0.54677202  0.44045230     0.02100
H201        H  0.49199537  0.57391694  0.44051095     0.02600
H202        H  0.50880465  0.53375522  0.41385523     0.06100
H203        H  0.43793629  0.62342699  0.47618141     0.05100
H204        H  0.41574222  0.60593346  0.51002598    -0.00700
H205        H  0.42123954  0.56460732  0.48267135     0.00800
H206        H  0.66845250  0.53584188  0.52133305     0.04500
H207        H  0.65565842  0.57043784  0.55112448     0.06400
H208        H  0.67770143  0.59694007  0.51934949     0.07300
C209        C  0.92749063  0.71618755  0.46618401    -0.22300
C210        C  0.89256260  0.75185407  0.47181438     0.09600
C211        C  0.89645689  0.79339079  0.45693891     0.10000
C212        C  0.93711248  0.79927026  0.43799189    -0.17300
C213        C  0.97468533  0.76481448  0.43361836    -0.27700
C214        C  0.96830578  0.72181831  0.44723745     0.18400
C215        C  0.85279395  0.74518116  0.49370618     0.12300
C216        C  0.85799028  0.83176607  0.46119225    -0.12000
H217        H  0.94087000  0.83209988  0.42762216     0.12600
C218        C  0.00438210  0.68170582  0.44258352    -0.22900
H219        H  0.92373806  0.68414771  0.47743160     0.08200
C220        C  0.81053618  0.71535496  0.48984043     0.04600
C221        C  0.77346151  0.71096263  0.51085357    -0.20100
C222        C  0.77655962  0.73642974  0.53559195    -0.12400
C223        C  0.81938437  0.76608549  0.53952846     0.13300
C224        C  0.85725803  0.76951070  0.51866942    -0.22800
C225        C  0.80336400  0.68943626  0.46313568    -0.05900
H226        H  0.74092506  0.68815382  0.50755950     0.14800
C227        C  0.82446480  0.79576069  0.56489813    -0.16100
H228        H  0.89008223  0.79215467  0.52153909     0.09100
H229        H  0.00735825  0.67422707  0.42012527     0.07000
H230        H  0.99027759  0.65007031  0.45296963     0.08200
H231        H  0.04321719  0.68920676  0.45123194     0.07200
H232        H  0.85986237  0.84439875  0.48280339     0.02100
H233        H  0.81830326  0.81914187  0.45681728     0.02600
H234        H  0.86581420  0.86134777  0.44730142     0.06100
H235        H  0.76704217  0.66908509  0.46315500     0.05100
H236        H  0.83605984  0.66527249  0.45988867    -0.00700
H237        H  0.80156737  0.71401128  0.44559406     0.00800
H238        H  0.85937445  0.81791882  0.56395566     0.04500
H239        H  0.82784400  0.77383788  0.58358739     0.06400
H240        H  0.79015636  0.81856782  0.56679570     0.07300
C241        C  0.32232639  0.82417050  0.49736006    -0.22300
C242        C  0.35605573  0.78654594  0.49565392     0.09600
C243        C  0.35341269  0.75694328  0.47254608     0.10000
C244        C  0.31518161  0.76430456  0.45238919    -0.17300
C245        C  0.27958640  0.80061061  0.45480181    -0.27700
C246        C  0.28451784  0.83199433  0.47707482     0.18400
C247        C  0.39446574  0.77921766  0.51805014     0.12300
C248        C  0.39078146  0.71752625  0.46918340    -0.12000
H249        H  0.31170094  0.74039757  0.43530780     0.12600
C250        C  0.25091957  0.87432218  0.47937528    -0.22900
H251        H  0.32521926  0.84721069  0.51489324     0.08200
C252        C  0.43726130  0.80859239  0.52124663     0.04600
C253        C  0.47451627  0.79848175  0.54139475    -0.20100
C254        C  0.47166290  0.75844616  0.55778322    -0.12400
C255        C  0.42736296  0.72989592  0.55517176     0.13300
C256        C  0.38895607  0.74131048  0.53570531    -0.22800
C257        C  0.44531201  0.84921822  0.50237431    -0.05900
H258        H  0.50791173  0.82077332  0.54298479     0.14800
C259        C  0.42037809  0.68681714  0.57206965    -0.16100
H260        H  0.35536288  0.71940414  0.53335881     0.09100
H261        H  0.25306500  0.89440177  0.45987516     0.07000
H262        H  0.26371478  0.89701300  0.49651288     0.08200
H263        H  0.21017506  0.86475626  0.48364904     0.07200
H264        H  0.38595587  0.69282880  0.48644099     0.02100
H265        H  0.43111151  0.73064482  0.46913215     0.02600
H266        H  0.38428871  0.69865460  0.44953225     0.06100
H267        H  0.48215896  0.86731158  0.50688644     0.05100
H268        H  0.41332201  0.87432198  0.50496037    -0.00700
H269        H  0.44659467  0.83746594  0.48053931     0.00800
H270        H  0.38184561  0.67099604  0.56855876     0.04500
H271        H  0.42357662  0.69501035  0.59442160     0.06400
H272        H  0.44985570  0.66080341  0.56619858     0.07300
C273        C  0.20399810  0.02856475  0.37613546    -0.22300
C274        C  0.25508124  0.03083118  0.38586927     0.09600
C275        C  0.28304493  0.98997406  0.39024050     0.10000
C276        C  0.25917462  0.94765192  0.38515210    -0.17300
C277        C  0.20729635  0.94460117  0.37611988    -0.27700
C278        C  0.17954759  0.98604308  0.37126884     0.18400
C279        C  0.27949207  0.07630465  0.39059009     0.12300
C280        C  0.33805299  0.99103850  0.40062735    -0.12000
H281        H  0.28125888  0.91663324  0.38901548     0.12600
C282        C  0.12428816  0.98620831  0.36132061    -0.22900
H283        H  0.18308536  0.06033260  0.37254871     0.08200
C284        C  0.30644036  0.09880909  0.36925334     0.04600
C285        C  0.33012865  0.14117699  0.37460360    -0.20100
C286        C  0.32661034  0.16265907  0.40068631    -0.12400
C287        C  0.29953067  0.13967869  0.42219530     0.13300
C288        C  0.27682770  0.09656336  0.41686960    -0.22800
C289        C  0.30938177  0.07840921  0.34064619    -0.05900
H290        H  0.35046600  0.15823388  0.35790769     0.14800
C291        C  0.29239535  0.16079418  0.45040332    -0.16100
H292        H  0.25611419  0.07878518  0.43316114     0.09100
H293        H  0.10948383  0.02166596  0.35810941     0.07000
H294        H  0.09896772  0.96951573  0.37688623     0.08200
H295        H  0.12154385  0.96779374  0.34126913     0.07200
H296        H  0.33940066  0.00829063  0.42108438     0.02100
H297        H  0.36287137  0.01014590  0.38585832     0.02600
H298        H  0.35441579  0.95594546  0.40304226     0.06100
H299        H  0.33168242  0.10056897  0.32625381     0.05100
H300        H  0.26973836  0.07430360  0.33214905    -0.00700
H301        H  0.32859741  0.04429855  0.34146038     0.00800
H302        H  0.27146668  0.19401247  0.44854917     0.04500
H303        H  0.33065689  0.16633484  0.46027199     0.06400
H304        H  0.26939601  0.13831478  0.46430030     0.07300
C305        C  0.22547654  0.58487873  0.40770216    -0.22300
C306        C  0.24911091  0.57605839  0.38210269     0.09600
C307        C  0.24775559  0.61001851  0.36140390     0.10000
C308        C  0.22245455  0.65185557  0.36663161    -0.17300
C309        C  0.19891310  0.66152010  0.39236983    -0.27700
C310        C  0.20089769  0.62723708  0.41327571     0.18400
C311        C  0.27500095  0.53099102  0.37731058     0.12300
C312        C  0.27415897  0.60252007  0.33396535    -0.12000
H313        H  0.22231261  0.67765189  0.35048371     0.12600
C314        C  0.17744645  0.63457687  0.44145715    -0.22900
H315        H  0.22678633  0.55850821  0.42351673     0.08200
C316        C  0.32468277  0.52127544  0.38803022     0.04600
C317        C  0.34682002  0.47773149  0.38358211    -0.20100
C318        C  0.31990204  0.44319238  0.36933576    -0.12400
C319        C  0.27094490  0.45349948  0.35775126     0.13300
C320        C  0.24928644  0.49741272  0.36170961    -0.22800
C321        C  0.35401505  0.55658482  0.40450733    -0.05900
H322        H  0.38422022  0.46990565  0.39253823     0.14800
C323        C  0.24174437  0.41849994  0.34096069    -0.16100
H324        H  0.21156513  0.50534933  0.35311820     0.09100
H325        H  0.19778443  0.66290747  0.45226968     0.07000
H326        H  0.18090115  0.60345243  0.45462901     0.08200
H327        H  0.13565549  0.64289334  0.43939863     0.07200
H328        H  0.25659319  0.57273283  0.32319133     0.02100
H329        H  0.31600859  0.59572446  0.33732108     0.02600
H330        H  0.27050902  0.63296910  0.32025281     0.06100
H331        H  0.39246482  0.54350927  0.41120347     0.05100
H332        H  0.33173707  0.56597816  0.42331140    -0.00700
H333        H  0.36019642  0.58779196  0.39173615     0.00800
H334        H  0.20553994  0.43312652  0.33219934     0.04500
H335        H  0.23089371  0.38876672  0.35406137     0.06400
H336        H  0.26626726  0.40648961  0.32352412     0.07300
C337        C  0.70745479  0.93013853  0.63496711    -0.22300
C338        C  0.73435071  0.95213079  0.61364549     0.09600
C339        C  0.73525103  0.93245105  0.58702264     0.10000
C340        C  0.71015296  0.89041466  0.58244616    -0.17300
C341        C  0.68489273  0.86697351  0.60401559    -0.27700
C342        C  0.68282171  0.88774438  0.63062812     0.18400
C343        C  0.75982148  0.99670673  0.61930637     0.12300
C344        C  0.76314893  0.95569379  0.56351384    -0.12000
H345        H  0.71211849  0.87495987  0.56209180     0.12600
C346        C  0.65444780  0.86611433  0.65458983    -0.22900
H347        H  0.70627492  0.94610701  0.65520366     0.08200
C348        C  0.73154588  0.03800664  0.61845452     0.04600
C349        C  0.75760491  0.07977665  0.62164503    -0.20100
C350        C  0.81176085  0.08167985  0.62523634    -0.12400
C351        C  0.83977698  0.03975647  0.62728019     0.13300
C352        C  0.81323826  0.99782485  0.62436511    -0.22800
C353        C  0.67402281  0.03804777  0.61323397    -0.05900
H354        H  0.73537653  0.11130974  0.62031975     0.14800
C355        C  0.89754022  0.03845601  0.63155250    -0.16100
H356        H  0.83444183  0.96567453  0.62516373     0.09100
H357        H  0.65312555  0.88927315  0.67283250     0.07000
H358        H  0.67431411  0.83414711  0.66123604     0.08200
H359        H  0.61392506  0.85842361  0.64853381     0.07200
H360        H  0.80489452  0.95891065  0.56855378     0.02100
H361        H  0.74657545  0.99045007  0.56004206     0.02600
H362        H  0.75974757  0.93594871  0.54395365     0.06100
H363        H  0.65786097  0.07343226  0.61275611     0.05100
H364        H  0.65399697  0.01874935  0.62987950    -0.00700
H365        H  0.66574297  0.02156286  0.59301629     0.00800
H366        H  0.91243298  0.00268696  0.63280227     0.04500
H367        H  0.90759679  0.05596511  0.65121433     0.06400
H368        H  0.91741908  0.05544879  0.61397714     0.07300
C369        C  0.77831472  0.53144650  0.59243259    -0.22300
C370        C  0.75911713  0.49514963  0.60826260     0.09600
C371        C  0.71698485  0.50284281  0.62630336     0.10000
C372        C  0.69452363  0.54689033  0.62779700    -0.17300
C373        C  0.71342941  0.58347366  0.61173052    -0.27700
C374        C  0.75598273  0.57531414  0.59361564     0.18400
C375        C  0.78313973  0.44915771  0.60468452     0.12300
C376        C  0.69517589  0.46438447  0.64352668    -0.12000
H377        H  0.66197230  0.55271354  0.64151223     0.12600
C378        C  0.77718177  0.61169558  0.57443441    -0.22900
H379        H  0.81061057  0.52502435  0.57862004     0.08200
C380        C  0.77375510  0.42253260  0.58082299     0.04600
C381        C  0.79845842  0.37978838  0.57784496    -0.20100
C382        C  0.83173882  0.36254001  0.59838179    -0.12400
C383        C  0.84168403  0.38976779  0.62216267     0.13300
C384        C  0.81752637  0.43288325  0.62483088    -0.22800
C385        C  0.73648574  0.43865890  0.55886828    -0.05900
H386        H  0.79002428  0.35889660  0.55985418     0.14800
C387        C  0.87824050  0.37418307  0.64463334    -0.16100
H388        H  0.82516270  0.45398413  0.64283550     0.09100
H389        H  0.74574471  0.62530397  0.56106256     0.07000
H390        H  0.80784831  0.59789673  0.56061053     0.08200
H391        H  0.79482408  0.63998440  0.58654977     0.07200
H392        H  0.72533885  0.45111497  0.65779940     0.02100
H393        H  0.68199151  0.43611554  0.62984066     0.02600
H394        H  0.66166726  0.47598470  0.65614400     0.06100
H395        H  0.73232152  0.41303193  0.54200572     0.05100
H396        H  0.75042807  0.47119208  0.54954212    -0.00700
H397        H  0.69770918  0.44446102  0.56817448     0.00800
H398        H  0.88453381  0.40146002  0.66032738     0.04500
H399        H  0.91642613  0.36526254  0.63552219     0.06400
H400        H  0.86217356  0.34398175  0.65564826     0.07300
C401        C  0.99943038  0.97941388  0.46297705    -0.22300
C402        C  0.01189557  0.98542377  0.49079501     0.09600
C403        C  0.04514444  0.95361379  0.50397397     0.10000
C404        C  0.06698999  0.91731809  0.48852228    -0.17300
C405        C  0.05599172  0.91233244  0.46025773    -0.27700
C406        C  0.02007882  0.94302471  0.44762647     0.18400
C407        C  0.98923204  0.02556056  0.50537327     0.12300
C408        C  0.05829819  0.95868923  0.53411386    -0.12000
H409        H  0.09391465  0.89375911  0.49827846     0.12600
C410        C  0.00097041  0.93833875  0.41824201    -0.22900
H411        H  0.97289202  0.00331744  0.45316282     0.08200
C412        C  0.01050930  0.06995244  0.50250788     0.04600
C413        C  0.98689050  0.10726458  0.51602540    -0.20100
C414        C  0.94243498  0.10114792  0.53234078    -0.12400
C415        C  0.91948395  0.05695621  0.53382224     0.13300
C416        C  0.94356310  0.01970007  0.52056442    -0.22800
C417        C  0.05886204  0.07765747  0.48573248    -0.05900
H418        H  0.00466878  0.14091126  0.51492057     0.14800
C419        C  0.86914031  0.04790299  0.54868400    -0.16100
H420        H  0.92629723  0.98584143  0.52185739     0.09100
H421        H  0.01404567  0.96830595  0.40588759     0.07000
H422        H  0.95797958  0.93761815  0.41820573     0.08200
H423        H  0.01364928  0.90650856  0.40783433     0.07200
H424        H  0.02242946  0.95663651  0.54670461     0.02100
H425        H  0.07708308  0.99244058  0.53768576     0.02600
H426        H  0.08516652  0.93126964  0.54119921     0.06100
H427        H  0.07046110  0.11434956  0.48569468     0.05100
H428        H  0.05220660  0.06714578  0.46396712    -0.00700
H429        H  0.09119855  0.05708735  0.49447574     0.00800
H430        H  0.84142577  0.03145794  0.53421858     0.04500
H431        H  0.85019299  0.07955938  0.55644325     0.06400
H432        H  0.87608151  0.02430244  0.56633520     0.07300
C433        C  0.69925267  0.20708381  0.49533138    -0.22300
C434        C  0.65981563  0.23868345  0.50089933     0.09600
C435        C  0.65637774  0.25847477  0.52752862     0.10000
C436        C  0.69654393  0.25086868  0.54670129    -0.17300
C437        C  0.73871303  0.22202446  0.54033436    -0.27700
C438        C  0.73809363  0.19763537  0.51478540     0.18400
C439        C  0.62156314  0.24871319  0.47875508     0.12300
C440        C  0.60952266  0.28603608  0.53607739    -0.12000
H441        H  0.69539383  0.26824476  0.56650413     0.12600
C442        C  0.77744567  0.16100368  0.50768531    -0.22900
H443        H  0.69996467  0.19010573  0.47537915     0.08200
C444        C  0.62081717  0.29105581  0.46447873     0.04600
C445        C  0.58121705  0.29979537  0.44521467    -0.20100
C446        C  0.54344312  0.26652717  0.43907715    -0.12400
C447        C  0.54855143  0.22202794  0.45101357     0.13300
C448        C  0.58711155  0.21408473  0.47090715    -0.22800
C449        C  0.66255634  0.32644696  0.46890942    -0.05900
H450        H  0.57887437  0.33340642  0.43564369     0.14800
C451        C  0.51395949  0.18241350  0.44310102    -0.16100
H452        H  0.58982349  0.18079745  0.48088580     0.09100
H453        H  0.81594403  0.17653744  0.50385521     0.07000
H454        H  0.76671060  0.14206903  0.48859604     0.08200
H455        H  0.77992215  0.13552544  0.52474016     0.07200
H456        H  0.57440769  0.26430138  0.53432927     0.02100
H457        H  0.60452523  0.31665125  0.52275465     0.02600
H458        H  0.61257064  0.29799293  0.55782139     0.06100
H459        H  0.65668068  0.35709388  0.45557718     0.08300
H460        H  0.70079997  0.31123017  0.46373232    -0.00700
H461        H  0.66332232  0.33821572  0.49066688     0.00800
H462        H  0.52805715  0.14942928  0.45190963     0.04500
H463        H  0.51317214  0.17863040  0.42025443     0.06400
H464        H  0.47419734  0.18779859  0.45114121     0.07300
C465        C  0.09964718  0.30287252  0.53114133    -0.22300
C466        C  0.12559431  0.26594430  0.51875499     0.09600
C467        C  0.11453311  0.22070781  0.52717817     0.10000
C468        C  0.07513238  0.21319605  0.54660056    -0.17300
C469        C  0.04624685  0.24991069  0.55772344    -0.27700
C470        C  0.05995777  0.29555309  0.55050670     0.18400
C471        C  0.16545506  0.27565035  0.49760284     0.12300
C472        C  0.14371900  0.18039661  0.51529600    -0.12000
H473        H  0.06521231  0.17818066  0.55202281     0.12600
C474        C  0.03343764  0.33674387  0.56310838    -0.22900
H475        H  0.10981483  0.33757918  0.52512329     0.08200
C476        C  0.15333000  0.27922480  0.46923523     0.04600
C477        C  0.19281999  0.28940318  0.45014855    -0.20100
C478        C  0.24412789  0.29616794  0.45888462    -0.12400
C479        C  0.25604172  0.29111153  0.48755665     0.13300
C480        C  0.21636900  0.28141973  0.50637836    -0.22800
C481        C  0.09876355  0.27210653  0.45922171    -0.05900
H482        H  0.18355431  0.29210630  0.42835075     0.14800
C483        C  0.31046801  0.29401983  0.49882077    -0.16100
H484        H  0.22507698  0.27790082  0.52821997     0.09100
H485        H  0.05267748  0.36932142  0.55704511     0.07000
H486        H  0.03462629  0.33424576  0.58601247     0.08200
H487        H  0.99271583  0.33898165  0.55599161     0.07200
H488        H  0.18557174  0.18377136  0.52006030     0.02100
H489        H  0.13853857  0.17927830  0.49252694     0.02600
H490        H  0.13001760  0.14728308  0.52402776     0.06100
H491        H  0.09581700  0.27594261  0.43642786     0.05100
H492        H  0.07267352  0.29776601  0.46898420    -0.00700
H493        H  0.08551708  0.23704700  0.46478908     0.00800
H494        H  0.31210272  0.28624736  0.52129378     0.04500
H495        H  0.32569909  0.32929683  0.49609856     0.06400
H496        H  0.33579697  0.26873944  0.48814529     0.07300
C497        C  0.51206503  0.25081610  0.21467866    -0.22300
C498        C  0.52623932  0.27929526  0.23670488     0.09600
C499        C  0.56817868  0.30989241  0.23349919     0.10000
C500        C  0.59290920  0.31345197  0.20766901    -0.17300
C501        C  0.57640305  0.28717836  0.18500411    -0.27700
C502        C  0.53700302  0.25390801  0.18895460     0.18400
C503        C  0.49432719  0.27912483  0.26224134     0.12300
C504        C  0.58548120  0.33991404  0.25709214    -0.12000
H505        H  0.62327463  0.33864694  0.20476945     0.12600
C506        C  0.52048450  0.22086429  0.16662785    -0.22900
H507        H  0.48056978  0.22665847  0.21741069     0.08200
C508        C  0.45045281  0.30786233  0.26473786     0.04600
C509        C  0.42370894  0.30994836  0.29001486    -0.20100
C510        C  0.44020643  0.28425801  0.31293208    -0.12400
C511        C  0.48216964  0.25310802  0.30979175     0.13300
C512        C  0.50895051  0.25125354  0.28452220    -0.22800
C513        C  0.43313027  0.33763700  0.24098881    -0.05900
H514        H  0.39179618  0.33388364  0.29237643     0.14800
C515        C  0.49959548  0.22123402  0.33257734    -0.16100
H516        H  0.54198742  0.22849213  0.28232885     0.09100
H517        H  0.47957096  0.22768185  0.16087874     0.07000
H518        H  0.52373128  0.18512657  0.17449987     0.08200
H519        H  0.54479520  0.22284623  0.14778967     0.07200
H520        H  0.59786557  0.31809638  0.27473355     0.02100
H521        H  0.55310513  0.36243597  0.26382392     0.02600
H522        H  0.61854290  0.36213066  0.25110784     0.06100
H523        H  0.39848449  0.35842072  0.24642788     0.05100
H524        H  0.42319158  0.31574421  0.22297309    -0.00700
H525        H  0.46466529  0.36155113  0.23506233     0.00800
H526        H  0.49938558  0.18529893  0.32486514     0.04500
H527        H  0.47398998  0.22227749  0.35096142     0.06400
H528        H  0.53956286  0.23022782  0.33901081     0.07300
C529        C  0.51108818  0.74759960  0.78039093    -0.22300
C530        C  0.49392966  0.72078530  0.75822631     0.09600
C531        C  0.44917248  0.69345505  0.76145252     0.10000
C532        C  0.42368416  0.69224702  0.78721326    -0.17300
C533        C  0.44252917  0.71718121  0.80993693    -0.27700
C534        C  0.48616886  0.74610050  0.80620893     0.18400
C535        C  0.52422019  0.72112484  0.73204278     0.12300
C536        C  0.42908030  0.66487095  0.73785172    -0.12000
H537        H  0.39049671  0.66998500  0.78998525     0.12600
C538        C  0.50653430  0.77587160  0.82928272    -0.22900
H539        H  0.54495176  0.76905012  0.77760629     0.08200
C540        C  0.51482507  0.75394682  0.71119698     0.04600
C541        C  0.54271820  0.75151460  0.68627728    -0.20100
C542        C  0.58036401  0.71735187  0.68175721    -0.12400
C543        C  0.59099154  0.68531208  0.70310883     0.13300
C544        C  0.56289152  0.68784412  0.72801230    -0.22800
C545        C  0.47469739  0.79099189  0.71510624    -0.05900
H546        H  0.53422282  0.77580995  0.66988335     0.14800
C547        C  0.62944950  0.64659621  0.70003077    -0.16100
H548        H  0.57025793  0.66285228  0.74418292     0.09100
H549        H  0.47482463  0.79765746  0.83756109     0.07000
H550        H  0.53792284  0.79894761  0.82202969     0.08200
H551        H  0.52280417  0.75437248  0.84610921     0.07200
H552        H  0.45911595  0.63979725  0.73129003     0.02100
H553        H  0.41918131  0.68744065  0.72011265     0.02600
H554        H  0.39380564  0.64545847  0.74377452     0.06100
H555        H  0.47198885  0.81381831  0.69675495     0.05100
H556        H  0.48494440  0.81242262  0.73327587    -0.00700
H557        H  0.43614593  0.77523741  0.71857539     0.00800
H558        H  0.65977910  0.64977193  0.71617403     0.04500
H559        H  0.64884190  0.64584461  0.67965065     0.06400
H560        H  0.60931251  0.61323235  0.70275232     0.07300
C561        C  0.46976554  0.54807969  0.00082007    -0.22300
C562        C  0.50521777  0.52021523  0.98645213     0.09600
C563        C  0.51804639  0.53075548  0.95891681     0.10000
C564        C  0.49435520  0.56841879  0.94614444    -0.17300
C565        C  0.45762563  0.59577549  0.96005401    -0.27700
C566        C  0.44553355  0.58581012  0.98793160     0.18400
C567        C  0.52772918  0.47950320  0.00035345     0.12300
C568        C  0.55602996  0.50179121  0.94284715    -0.12000
H569        H  0.50408314  0.57623326  0.92483448     0.12600
C570        C  0.40600091  0.61252655  0.00427468    -0.22900
H571        H  0.46015469  0.53972034  0.02205936     0.08200
C572        C  0.57434452  0.48242781  0.01528613     0.04600
C573        C  0.59329611  0.44327644  0.02881491    -0.20100
C574        C  0.56610648  0.40141631  0.02844291    -0.12400
C575        C  0.51941388  0.39846627  0.01307349     0.13300
C576        C  0.50148969  0.43747505  0.99882365    -0.22800
C577        C  0.60307141  0.52724354  0.01777370    -0.05900
H578        H  0.62846697  0.44592970  0.04095601     0.14800
C579        C  0.48534297  0.35645056  0.01253907    -0.16100
H580        H  0.46557559  0.43561260  0.98727177     0.09100
H581        H  0.42486472  0.62811947  0.02262646     0.07000
H582        H  0.37500396  0.58894844  0.01140147     0.08200
H583        H  0.38732434  0.64029905  0.99221886     0.07200
H584        H  0.54170648  0.46593108  0.94152352     0.02100
H585        H  0.59427045  0.50188394  0.95327571     0.02600
H586        H  0.56149439  0.51484506  0.92146149     0.06100
H587        H  0.63855247  0.52353388  0.03052079     0.05100
H588        H  0.57780988  0.55339002  0.02769364    -0.00700
H589        H  0.61472660  0.53966529  0.99700319     0.00800
H590        H  0.44649183  0.36531751  0.02085334     0.04500
H591        H  0.50036564  0.32754270  0.02488093     0.06400
H592        H  0.48089727  0.34437396  0.99089786     0.07300
C593        C  0.01155190  0.76151629  0.21181479    -0.22300
C594        C  0.99553416  0.79102936  0.23302014     0.09600
C595        C  0.95110870  0.81870680  0.22911254     0.10000
C596        C  0.92458377  0.81723842  0.20368016    -0.17300
C597        C  0.94211608  0.78934934  0.18188398    -0.27700
C598        C  0.98569619  0.76047071  0.18626084     0.18400
C599        C  0.02634900  0.79275907  0.25899808     0.12300
C600        C  0.93224911  0.85026335  0.25165623    -0.12000
H601        H  0.89167412  0.83971213  0.20032160     0.12600
C602        C  0.00505833  0.72817377  0.16414471    -0.22900
H603        H  0.04525754  0.73995209  0.21509892     0.08200
C604        C  0.02025419  0.75947330  0.27992996     0.04600
C605        C  0.04860592  0.76358877  0.30460022    -0.20100
C606        C  0.08310657  0.80017473  0.30888956    -0.12400
C607        C  0.08988011  0.83315410  0.28763442     0.13300
C608        C  0.06176186  0.82867676  0.26287067    -0.22800
C609        C  0.98253971  0.72049893  0.27656506    -0.05900
H610        H  0.04257694  0.73888667  0.32106991     0.14800
C611        C  0.12385945  0.87488007  0.29078584    -0.16100
H612        H  0.06634566  0.85422190  0.24673277     0.09100
H613        H  0.03694051  0.70592462  0.17183772     0.07000
H614        H  0.02031782  0.74772362  0.14624131     0.08200
H615        H  0.97305589  0.70554550  0.15725608     0.07200
H616        H  0.96266184  0.87579216  0.25671563     0.02100
H617        H  0.92303369  0.82993515  0.27044564     0.02600
H618        H  0.89683627  0.86927946  0.24536494     0.06100
H619        H  0.98182253  0.69788553  0.29506147     0.05100
H620        H  0.99362444  0.69924795  0.25844224    -0.00700
H621        H  0.94293297  0.73441648  0.27336468     0.00800
H622        H  0.15386497  0.87477938  0.27434301     0.04500
H623        H  0.14380481  0.87664708  0.31097741     0.06400
H624        H  0.09993412  0.90643007  0.28863575     0.07300
C625        C  0.15126213  0.73757668  0.96753585    -0.22300
C626        C  0.16151425  0.72849187  0.99550236     0.09600
C627        C  0.21026874  0.71123540  0.00320816     0.10000
C628        C  0.24821387  0.70439712  0.98289867    -0.17300
C629        C  0.23933412  0.71502251  0.95477238    -0.27700
C630        C  0.18949515  0.73131485  0.94703255     0.18400
C631        C  0.12142379  0.73888924  0.01663669     0.12300
C632        C  0.22269221  0.70114244  0.03305367    -0.12000
H633        H  0.28575040  0.69173709  0.98941207     0.12600
C634        C  0.17610537  0.74285906  0.91752047    -0.22900
H635        H  0.11340871  0.75067283  0.96185897     0.08200
C636        C  0.11510520  0.78362401  0.02728415     0.04600
C637        C  0.07564056  0.79235208  0.04656254    -0.20100
C638        C  0.04173375  0.75746345  0.05538490    -0.12400
C639        C  0.05033181  0.71185704  0.04580553     0.13300
C640        C  0.09010080  0.70332349  0.02657104    -0.22800
C641        C  0.14965415  0.82230672  0.01798746    -0.05900
H642        H  0.06974392  0.82728107  0.05365033     0.14800
C643        C  0.01815145  0.67181823  0.05558191    -0.16100
H644        H  0.09624368  0.66882159  0.01877488     0.09100
H645        H  0.20056695  0.77168692  0.91015307     0.07000
H646        H  0.13505050  0.75370939  0.91536043     0.08200
H647        H  0.18205836  0.71222420  0.90420516     0.07200
H648        H  0.19600075  0.67444437  0.04107815     0.02100
H649        H  0.21825620  0.73287828  0.04557631     0.02600
H650        H  0.26296666  0.68842089  0.03565549     0.06100
H651        H  0.13973369  0.85514730  0.02844164     0.05100
H652        H  0.14559912  0.82750617  0.99535274    -0.00700
H653        H  0.19059379  0.81388699  0.02284538     0.00800
H654        H  0.97804007  0.67462031  0.04758673     0.04500
H655        H  0.01776743  0.67074972  0.07853410     0.06400
H656        H  0.03395430  0.63854384  0.04809171     0.07300
C657        C  0.59282439  0.80025667  0.96376982    -0.22300
C658        C  0.62494273  0.76489427  0.97330128     0.09600
C659        C  0.61964952  0.72036016  0.96222390     0.10000
C660        C  0.58001342  0.71154841  0.94307290    -0.17300
C661        C  0.54499402  0.74617042  0.93488253    -0.27700
C662        C  0.55296216  0.79170065  0.94471138     0.18400
C663        C  0.66381928  0.77539636  0.99496954     0.12300
C664        C  0.65538189  0.68202389  0.97094641    -0.12000
H665        H  0.57479349  0.67672851  0.93566182     0.12600
C666        C  0.51970442  0.83165206  0.93566314    -0.22900
H667        H  0.59814844  0.83460508  0.97195044     0.08200
C668        C  0.71090511  0.79679658  0.98829908     0.04600
C669        C  0.74710296  0.80509985  0.00924507    -0.20100
C670        C  0.73813616  0.79196559  0.03697105    -0.12400
C671        C  0.68969182  0.77185730  0.04373178     0.13300
C672        C  0.65322216  0.76397325  0.02258782    -0.22800
C673        C  0.72357458  0.80978946  0.95889181    -0.05900
H674        H  0.78350505  0.82087326  0.00352273     0.14800
C675        C  0.67590757  0.75816682  0.07285950    -0.16100
H676        H  0.61641958  0.74810915  0.02750143     0.09100
H677        H  0.53524147  0.86491869  0.94321420     0.07000
H678        H  0.48001393  0.82831901  0.94417395     0.08200
H679        H  0.51834216  0.83325533  0.91273447     0.07200
H680        H  0.65172781  0.67597153  0.99352405     0.02100
H681        H  0.69601183  0.69139418  0.96605465     0.02600
H682        H  0.64628674  0.64936770  0.96012353     0.06100
H683        H  0.76260269  0.82545547  0.95712592     0.05100
H684        H  0.69483373  0.83508761  0.95114007    -0.00700
H685        H  0.72269397  0.77871716  0.94558564     0.00800
H686        H  0.63582240  0.74462691  0.07425566     0.04500
H687        H  0.67852385  0.78850848  0.08670050     0.06400
H688        H  0.70239144  0.73067760  0.08018290     0.07300
C689        C  0.73590225  0.98495636  0.12525007    -0.22300
C690        C  0.76642317  0.02331674  0.11938446     0.09600
C691        C  0.82073302  0.01845911  0.11789127     0.10000
C692        C  0.84300059  0.97444946  0.12018690    -0.17300
C693        C  0.81215119  0.93520694  0.12414189    -0.27700
C694        C  0.75783778  0.94099696  0.12777212     0.18400
C695        C  0.74024958  0.06811218  0.11479832     0.12300
C696        C  0.85505194  0.05969007  0.11382177    -0.12000
H697        H  0.88449267  0.97055083  0.11774319     0.12600
C698        C  0.72233876  0.90140406  0.13448306    -0.22900
H699        H  0.69435829  0.98937518  0.12718268     0.08200
C700        C  0.72834343  0.08402818  0.08799733     0.04600
C701        C  0.70397365  0.12690533  0.08472310    -0.20100
C702        C  0.69044693  0.15429371  0.10764547    -0.12400
C703        C  0.70029306  0.13675388  0.13470204     0.13300
C704        C  0.72511560  0.09402093  0.13775133    -0.22800
C705        C  0.74087517  0.05550863  0.06285105    -0.05900
H706        H  0.69634663  0.13934823  0.06400364     0.14800
C707        C  0.68512224  0.16217962  0.16069252    -0.16100
H708        H  0.73331480  0.08076203  0.15824249     0.09100
H709        H  0.68255128  0.91337340  0.13947755     0.07000
H710        H  0.73726297  0.88244087  0.15275196     0.08200
H711        H  0.71901728  0.87791341  0.11652112     0.07200
H712        H  0.84909965  0.08427419  0.13109050     0.02100
H713        H  0.84565465  0.07706393  0.09403551     0.02600
H714        H  0.89664277  0.04994602  0.11335791     0.06100
H715        H  0.72851372  0.07277914  0.04345825     0.05100
H716        H  0.72058224  0.02199802  0.06419254    -0.00700
H717        H  0.78316770  0.04925429  0.06154945     0.00800
H718        H  0.69301299  0.14161872  0.17958736     0.04500
H719        H  0.64301241  0.16995661  0.16038296     0.06400
H720        H  0.70775166  0.19438553  0.16256358     0.07300
C721        C  0.69705800  0.52315257  0.12335727    -0.22300
C722        C  0.74265610  0.52702460  0.10770399     0.09600
C723        C  0.76451220  0.48747504  0.09570608     0.10000
C724        C  0.74093191  0.44483165  0.09992789    -0.17300
C725        C  0.69538443  0.44011060  0.11578941    -0.27700
C726        C  0.67280964  0.48021821  0.12741689     0.18400
C727        C  0.76776962  0.57248644  0.10404281     0.12300
C728        C  0.81262771  0.49031642  0.07811874    -0.12000
H729        H  0.75823067  0.41491084  0.09027557     0.12600
C730        C  0.62381412  0.47829535  0.14424842    -0.22900
H731        H  0.68040545  0.55390873  0.13237065     0.08200
C732        C  0.75300975  0.60264175  0.08259319     0.04600
C733        C  0.78060964  0.64367486  0.07864421    -0.20100
C734        C  0.82259559  0.65539839  0.09571668    -0.12400
C735        C  0.83804174  0.62450840  0.11683391     0.13300
C736        C  0.81010649  0.58369883  0.12084260    -0.22800
C737        C  0.70819952  0.59142468  0.06389285    -0.05900
H738        H  0.76824993  0.66745516  0.06267886     0.14800
C739        C  0.88467697  0.63258773  0.13490394    -0.16100
H740        H  0.82215059  0.55985947  0.13685171     0.09100
H741        H  0.59133849  0.46606557  0.13118137     0.07000
H742        H  0.61291718  0.51263806  0.15243503     0.08200
H743        H  0.62918139  0.45481193  0.16211883     0.07200
H744        H  0.84526917  0.50387810  0.09057302     0.02100
H745        H  0.80560711  0.51348833  0.06026605     0.02600
H746        H  0.82424262  0.45617330  0.06991249     0.06100
H747        H  0.70161216  0.61871851  0.04821373     0.05100
H748        H  0.67229227  0.58773418  0.07631205    -0.00700
H749        H  0.71610689  0.55873906  0.05284335     0.00800
H750        H  0.87219846  0.63658414  0.15674506     0.04500
H751        H  0.90722270  0.66322671  0.12874605     0.06400
H752        H  0.91122991  0.60262594  0.13340211     0.07300
C753        C  0.01094545  0.26012795  0.78423085    -0.22300
C754        C  0.02539500  0.23276948  0.76164528     0.09600
C755        C  0.06776344  0.20229728  0.76444718     0.10000
C756        C  0.09273542  0.19792396  0.79020149    -0.17300
C757        C  0.07629390  0.22328020  0.81331098    -0.27700
C758        C  0.03628101  0.25630254  0.80988933     0.18400
C759        C  0.99432492  0.23471989  0.73565041     0.12300
C760        C  0.08543419  0.17323497  0.74046374    -0.12000
H761        H  0.12361518  0.17296199  0.79262570     0.12600
C762        C  0.01999094  0.28873326  0.83261619    -0.22900
H763        H  0.97928700  0.28435388  0.78189696     0.08200
C764        C  0.94819198  0.20917221  0.73269128     0.04600
C765        C  0.92282700  0.20797168  0.70691702    -0.20100
C766        C  0.94248054  0.23180458  0.68395156    -0.12400
C767        C  0.98652116  0.26028765  0.68760262     0.13300
C768        C  0.01223945  0.26080218  0.71325253    -0.22800
C769        C  0.92682610  0.18182251  0.75652035    -0.05900
H770        H  0.88906532  0.18634810  0.70432675     0.14800
C771        C  0.00700800  0.29114852  0.66507449    -0.16100
H772        H  0.04688785  0.28136311  0.71571698     0.09100
H773        H  0.97916034  0.28188417  0.83844880     0.07000
H774        H  0.02309637  0.32468481  0.82510299     0.08200
H775        H  0.04449158  0.28606888  0.85134518     0.07200
H776        H  0.09783861  0.19570635  0.72314756     0.02100
H777        H  0.05320781  0.15096713  0.73339792     0.02600
H778        H  0.11860474  0.15081836  0.74617147     0.06100
H779        H  0.89092522  0.16326266  0.75071101     0.05100
H780        H  0.91749250  0.20518307  0.77397542    -0.00700
H781        H  0.95587923  0.15610580  0.76343364     0.00800
H782        H  0.00888465  0.32700502  0.67285479     0.04500
H783        H  0.98216019  0.29170316  0.64641018     0.06400
H784        H  0.04654715  0.27991072  0.65907435     0.07300
C785        C  0.08027894  0.01528555  0.97669323    -0.22300
C786        C  0.03451045  0.02117868  0.99174522     0.09600
C787        C  0.01390708  0.06569519  0.99558485     0.10000
C788        C  0.03806571  0.10328889  0.98283608    -0.17300
C789        C  0.08232453  0.09715690  0.96641819    -0.27700
C790        C  0.10485285  0.05277836  0.96419386     0.18400
C791        C  0.01055677  0.98072744  0.00497013     0.12300
C792        C  0.96553600  0.07322141  0.01242295    -0.12000
H793        H  0.02047800  0.13707200  0.98427907     0.12600
C794        C  0.15474477  0.04371894  0.94883986    -0.22900
H795        H  0.09690744  0.98119683  0.97468813     0.08200
C796        C  0.97541490  0.95185000  0.99093378     0.04600
C797        C  0.95120810  0.91584248  0.00543162    -0.20100
C798        C  0.96105701  0.90899435  0.03365582    -0.12400
C799        C  0.99820789  0.93706082  0.04723935     0.13300
C800        C  0.02248373  0.97231818  0.03260223    -0.22800
C801        C  0.96289191  0.95974063  0.96092293    -0.05900
H802        H  0.92339156  0.89406905  0.99500926     0.14800
C803        C  0.01344355  0.93001625  0.07710660    -0.16100
H804        H  0.05021673  0.99434030  0.04293434     0.09100
H805        H  0.14711828  0.02116198  0.93078808     0.07000
H806        H  0.18254580  0.02613351  0.96281336     0.08200
H807        H  0.17384940  0.07555792  0.94154922     0.07200
H808        H  0.97205947  0.06176033  0.03403724     0.02100
H809        H  0.93306961  0.05332949  0.00337653     0.02600
H810        H  0.95412037  0.11001527  0.01291547     0.06100
H811        H  0.93437415  0.93436401  0.95311839     0.05100
H812        H  0.99869514  0.95661933  0.94834687    -0.00700
H813        H  0.94632850  0.99467681  0.95816873     0.00800
H814        H  0.04557135  0.95309551  0.08334345     0.04500
H815        H  0.02686766  0.89422376  0.08030006     0.06400
H816        H  0.98036181  0.93767767  0.09099470     0.07300
C817        C  0.31397331  0.48571975  0.87215229    -0.22300
C818        C  0.25975734  0.48463428  0.87251369     0.09600
C819        C  0.23167491  0.52567112  0.86882472     0.10000
C820        C  0.25848854  0.56742450  0.86674196    -0.17300
C821        C  0.31298806  0.56933711  0.86822197    -0.27700
C822        C  0.34111006  0.52743562  0.86995523     0.18400
C823        C  0.23342020  0.44041171  0.87833887     0.12300
C824        C  0.17339839  0.52541745  0.86760782    -0.12000
H825        H  0.23645292  0.59900157  0.86482235     0.12600
C826        C  0.39940909  0.52604856  0.87071424    -0.22900
H827        H  0.33512277  0.45374700  0.87454240     0.08200
C828        C  0.22323803  0.40846728  0.85726326     0.04600
C829        C  0.20087132  0.36611042  0.86409692    -0.20100
C830        C  0.18943654  0.35390997  0.89174262    -0.12400
C831        C  0.19904018  0.38674840  0.91284548     0.13300
C832        C  0.22047022  0.42963742  0.90574584    -0.22800
C833        C  0.23686783  0.41875498  0.82759947    -0.05900
H834        H  0.19383070  0.34184088  0.84755758     0.14800
C835        C  0.18805263  0.37706414  0.94288087    -0.16100
H836        H  0.22851044  0.45463529  0.92177929     0.09100
H837        H  0.41438168  0.49031694  0.87211093     0.07000
H838        H  0.41381401  0.54497157  0.88904499     0.08200
H839        H  0.41532410  0.54148568  0.85152936     0.07200
H840        H  0.15743590  0.51144786  0.88718524     0.02100
H841        H  0.16035933  0.50366253  0.85010767     0.02600
H842        H  0.15737088  0.56050149  0.86457472     0.06100
H843        H  0.22639053  0.38997177  0.81361860     0.05100
H844        H  0.27916312  0.42468891  0.82572967    -0.00700
H845        H  0.21583571  0.44993673  0.82058842     0.00800
H846        H  0.21242815  0.34802597  0.95015625     0.04500
H847        H  0.14644862  0.36873391  0.94565859     0.06400
H848        H  0.19690632  0.40713708  0.95618634     0.07300
C849        C  0.20299595  0.98569299  0.87153166    -0.22300
C850        C  0.25484575  0.98293792  0.88012278     0.09600
C851        C  0.28256857  0.02368310  0.88500610     0.10000
C852        C  0.25774622  0.06615501  0.88166765    -0.17300
C853        C  0.20506933  0.06960416  0.87409355    -0.27700
C854        C  0.17752003  0.02840181  0.86865557     0.18400
C855        C  0.27922653  0.93723030  0.88494591     0.12300
C856        C  0.33799254  0.02241968  0.89477375    -0.12000
H857        H  0.27975982  0.09697072  0.88594738     0.12600
C858        C  0.12127515  0.02867269  0.86048821    -0.22900
H859        H  0.18203463  0.95410726  0.86772396     0.08200
C860        C  0.26823141  0.91124620  0.90888748     0.04600
C861        C  0.29308206  0.86872013  0.91292416    -0.20100
C862        C  0.32885356  0.85145705  0.89359750    -0.12400
C863        C  0.34138902  0.87855870  0.87014523     0.13300
C864        C  0.31615367  0.92090114  0.86607830    -0.22800
C865        C  0.23057066  0.92860954  0.93029104    -0.05900
H866        H  0.28323452  0.84817678  0.93085889     0.14800
C867        C  0.38247583  0.86392612  0.84978612    -0.16100
H868        H  0.32532417  0.94155899  0.84808828     0.09100
H869        H  0.09759070  0.04389786  0.87732910     0.07000
H870        H  0.10654792  0.99341384  0.85668418     0.08200
H871        H  0.11608690  0.04872052  0.84115044     0.07200
H872        H  0.36280789  0.00569493  0.87896400     0.02100
H873        H  0.34060147  0.00286146  0.91444280     0.02600
H874        H  0.35349774  0.05742865  0.89851718     0.06100
H875        H  0.22708668  0.90452038  0.94800511     0.05100
H876        H  0.19161101  0.93279767  0.92095492    -0.00700
H877        H  0.24389283  0.96227328  0.93836791     0.00800
H878        H  0.37022088  0.83266204  0.83847465     0.04500
H879        H  0.41924941  0.85709015  0.86094471     0.06400
H880        H  0.39007212  0.89099370  0.83411587     0.07300
C881        C  0.35840752  0.25595061  0.97490309    -0.22300
C882        C  0.35936464  0.22409273  0.99661945     0.09600
C883        C  0.32393704  0.18746692  0.99675481     0.10000
C884        C  0.28752485  0.18405385  0.97534260    -0.17300
C885        C  0.28460555  0.21706508  0.95404041    -0.27700
C886        C  0.32101345  0.25362658  0.95383577     0.18400
C887        C  0.39777538  0.23026300  0.01905885     0.12300
C888        C  0.32361604  0.15279707  0.01989874    -0.12000
H889        H  0.25970406  0.15622965  0.97581747     0.12600
C890        C  0.32050431  0.29262705  0.93326161    -0.22900
H891        H  0.38599546  0.28399062  0.97498957     0.08200
C892        C  0.44742902  0.21065183  0.01713142     0.04600
C893        C  0.48415884  0.22043817  0.03755251    -0.20100
C894        C  0.47340421  0.25100261  0.05945773    -0.12400
C895        C  0.42277327  0.26945340  0.06184838     0.13300
C896        C  0.38541442  0.25837752  0.04171169    -0.22800
C897        C  0.46240816  0.18098529  0.99284723    -0.05900
H898        H  0.52276897  0.20632555  0.03521524     0.14800
C899        C  0.40783636  0.30090772  0.08526926    -0.16100
H900        H  0.34688124  0.27304540  0.04304429     0.09100
H901        H  0.35739104  0.29257589  0.92146496     0.07000
H902        H  0.31712451  0.32576648  0.94451024     0.08200
H903        H  0.28830943  0.29165209  0.91834911     0.07200
H904        H  0.31635062  0.17048079  0.03987153     0.02100
H905        H  0.36150616  0.13486255  0.02092900     0.02600
H906        H  0.29300947  0.12650975  0.01695890     0.06100
H907        H  0.50306587  0.16875267  0.99438416     0.05100
H908        H  0.45851319  0.20094187  0.97338917    -0.00700
H909        H  0.43688934  0.15043917  0.99181641     0.00800
H910        H  0.42912993  0.33383966  0.08365709     0.04500
H911        H  0.41668789  0.28413772  0.10534877     0.06400
H912        H  0.36583534  0.30916406  0.08491712     0.07300
C913        C  0.93804720  0.29049503  0.98050822    -0.22300
C914        C  0.89652858  0.25988762  0.98159408     0.09600
C915        C  0.89400731  0.22365576  0.96224392     0.10000
C916        C  0.93513288  0.21705571  0.94348682    -0.17300
C917        C  0.97835006  0.24656228  0.94299659    -0.27700
C918        C  0.97881838  0.28470660  0.96157005     0.18400
C919        C  0.85535028  0.26811291  0.00255417     0.12300
C920        C  0.84744141  0.19263159  0.96093464    -0.12000
H921        H  0.93371396  0.18818823  0.92936637     0.12600
C922        C  0.02224966  0.31930398  0.96245112    -0.22900
H923        H  0.93883129  0.31890490  0.99500883     0.08200
C924        C  0.85311935  0.24330216  0.02765770     0.04600
C925        C  0.81306552  0.25259515  0.04661712    -0.20100
C926        C  0.77581808  0.28680453  0.04134949    -0.12400
C927        C  0.78046597  0.31375108  0.01699403     0.13300
C928        C  0.81996260  0.30379994  0.99792242    -0.22800
C929        C  0.89358061  0.20782364  0.03475352    -0.05900
H930        H  0.81011824  0.23222915  0.06531988     0.14800
C931        C  0.74492404  0.35384725  0.01117325    -0.16100
H932        H  0.82322987  0.32389518  0.97912321     0.09100
H933        H  0.05886776  0.30233194  0.96883101     0.07000
H934        H  0.01459850  0.34722063  0.97758385     0.08200
H935        H  0.02687290  0.33564999  0.94185559     0.07200
H936        H  0.81228139  0.21344425  0.95663992     0.02100
H937        H  0.84211187  0.17424817  0.98078542     0.02600
H938        H  0.85134629  0.16650835  0.94432250     0.06100
H939        H  0.88649603  0.19221447  0.05536936     0.05100
H940        H  0.93236471  0.22416191  0.03510085    -0.00700
H941        H  0.89373893  0.17983118  0.01925359     0.00800
H942        H  0.75763584  0.37358343  0.99272969     0.04500
H943        H  0.74472157  0.37768280  0.02910894     0.06400
H944        H  0.70504548  0.34169958  0.00697163     0.07300
loop_ 
_geom_bond_atom_site_label_1 
_geom_bond_atom_site_label_2 
_geom_bond_distance 
_geom_bond_site_symmetry_2 
_ccdc_geom_bond_type 
O1          Cr19   2.034       .  S
O1            C9   1.272       .  A
O2          Cr19   1.945       .  S
O2            C3   1.254       .  A
C3            O4   1.274       .  A
C3          C789   1.473       .  S
O4          Cr20   2.041       .  S
O5          Cr20   1.953       .  S
O5            C6   1.254       .  A
C6            O7   1.270       .  A
C6          C885   1.487       .  S
O7          Cr21   2.036       .  S
O8          Cr21   1.955       .  S
O8            C9   1.257       .  A
C9          C853   1.501       .  S
O10         Cr19   1.973       .  S
O10          C18   1.261       .  A
O11         Cr19   2.042       .  S
O11          C12   1.272       .  A
C12          O13   1.253       .  A
C12         C917   1.502   1_455  S
O13         Cr20   1.961       .  S
O14         Cr20   2.042       .  S
O14          C15   1.275       .  A
C15          O16   1.258       .  A
C15         C830   1.500       .  S
O16         Cr21   1.954       .  S
O17         Cr21   2.036       .  S
O17          C18   1.273       .  A
C18         C757   1.488       .  S
Cr19         O22   1.765       .  S
Cr20         O22   1.759       .  S
Cr21         O22   1.763       .  S
O23         Cr41   1.956       .  S
O23          C31   1.254       .  A
O24         Cr41   2.045       .  S
O24          C25   1.274       .  A
C25          O26   1.257       .  A
C25         C670   1.498       .  S
O26         Cr42   1.955       .  S
O27         Cr42   2.048       .  S
O27          C28   1.271       .  A
C28          O29   1.249       .  A
C28         C798   1.477       .  S
O29         Cr43   1.947       .  S
O30         Cr43   2.030       .  S
O30          C31   1.271       .  A
C31         C693   1.490       .  S
O32         Cr41   2.049       .  S
O32          C40   1.276       .  A
O33         Cr41   1.965       .  S
O33          C34   1.259       .  A
C34          O35   1.274       .  A
C34         C734   1.482       .  S
O35         Cr42   2.036       .  S
O36         Cr42   1.961       .  S
O36          C37   1.256       .  A
C37          O38   1.273       .  A
C37         C638   1.492   1_655  S
O38         Cr43   2.037       .  S
O39         Cr43   1.953       .  S
O39          C40   1.255       .  A
C40         C597   1.486       .  S
Cr41         O44   1.762       .  S
Cr42         O44   1.761       .  S
Cr43         O44   1.755       .  S
O45         Cr63   1.965       .  S
O45          C53   1.258       .  A
O46         Cr63   2.044       .  S
O46          C47   1.274       .  A
C47          O48   1.257       .  A
C47         C629   1.500       .  S
O48         Cr64   1.956       .  S
O49         Cr64   2.047       .  S
O49          C50   1.272       .  A
C50          O51   1.253       .  A
C50         C565   1.479       .  S
O51         Cr65   1.949       .  S
O52         Cr65   2.026       .  S
O52          C53   1.270       .  A
C53         C821   1.494       .  S
O54         Cr63   2.047       .  S
O54          C62   1.275       .  A
O55         Cr63   1.965       .  S
O55          C56   1.258       .  A
C56          O57   1.274       .  A
C56         C862   1.488       .  S
O57         Cr64   2.039       .  S
O58         Cr64   1.962       .  S
O58          C59   1.255       .  A
C59          O60   1.272       .  A
C59         C661   1.493       .  S
O60         Cr65   2.034       .  S
O61         Cr65   1.956       .  S
O61          C62   1.256       .  A
C62         C533   1.487       .  S
Cr63         O66   1.763       .  S
Cr64         O66   1.761       .  S
Cr65         O66   1.759       .  S
O67         Cr85   2.029       .  S
O67          C75   1.271       .  A
O68         Cr85   1.947       .  S
O68          C69   1.255       .  A
C69          O70   1.274       .  A
C69         C574   1.480       .  S
O70         Cr86   2.044       .  S
O71         Cr86   1.957       .  S
O71          C72   1.254       .  A
C72          O73   1.272       .  A
C72         C926   1.488       .  S
O73         Cr87   2.037       .  S
O74         Cr87   1.957       .  S
O74          C75   1.258       .  A
C75         C725   1.497       .  S
O76         Cr85   1.963       .  S
O76          C84   1.258       .  A
O77         Cr85   2.034       .  S
O77          C78   1.269       .  A
C78          O79   1.255       .  A
C78         C894   1.490       .  S
O79         Cr86   1.961       .  S
O80         Cr86   2.036       .  S
O80          C81   1.274       .  A
C81          O82   1.256       .  A
C81         C702   1.498       .  S
O82         Cr87   1.960       .  S
O83         Cr87   2.033       .  S
O83          C84   1.272       .  A
C84         C501   1.482       .  S
Cr85         O88   1.767       .  S
Cr86         O88   1.757       .  S
Cr87         O88   1.764       .  S
O89        Cr107   2.022       .  S
O89          C97   1.269       .  A
O90        Cr107   1.958       .  S
O90          C91   1.256       .  A
C91          O92   1.273       .  A
C91         C414   1.481       .  S
O92        Cr108   2.038       .  S
O93        Cr108   1.952       .  S
O93          C94   1.252       .  A
C94          O95   1.273       .  A
C94         C437   1.494       .  S
O95        Cr109   2.044       .  S
O96        Cr109   1.957       .  S
O96          C97   1.257       .  A
C97         C350   1.493       .  S
O98        Cr107   1.967       .  S
O98         C106   1.259       .  A
O99        Cr107   2.022       .  S
O99         C100   1.270       .  A
C100        O101   1.256       .  A
C100        C469   1.486   1_655  S
O101       Cr108   1.964       .  S
O102       Cr108   2.036       .  S
O102        C103   1.274       .  A
C103        O104   1.256       .  A
C103        C382   1.486       .  S
O104       Cr109   1.959       .  S
O105       Cr109   2.042       .  S
O105        C106   1.275       .  A
C106        C766   1.489       .  S
Cr107       O110   1.763       .  S
Cr108       O110   1.759       .  S
Cr109       O110   1.765       .  S
O111       Cr129   1.958       .  S
O111        C119   1.256       .  A
O112       Cr129   2.032       .  S
O112        C113   1.271       .  A
C113        O114   1.255       .  A
C113        C245   1.480       .  S
O114       Cr130   1.957       .  S
O115       Cr130   2.054       .  S
O115        C116   1.273       .  A
C116        O117   1.251       .  A
C116        C405   1.482       .  S
O117       Cr131   1.953       .  S
O118       Cr131   2.024       .  S
O118        C119   1.269       .  A
C119        C277   1.498       .  S
O120       Cr129   2.041       .  S
O120        C128   1.274       .  A
O121       Cr129   1.962       .  S
O121        C122   1.260       .  A
C122        O123   1.275       .  A
C122        C309   1.502       .  S
O123       Cr130   2.047       .  S
O124       Cr130   1.965       .  S
O124        C125   1.257       .  A
C125        O126   1.272       .  A
C125        C213   1.496   1_455  S
O126       Cr131   2.030       .  S
O127       Cr131   1.959       .  S
O127        C128   1.256       .  A
C128        C606   1.481       .  S
Cr129       O132   1.764       .  S
Cr130       O132   1.762       .  S
Cr131       O132   1.758       .  S
O133       Cr151   1.955       .  S
O133        C141   1.254       .  A
O134       Cr151   2.041       .  S
O134        C135   1.273       .  A
C135        O136   1.256       .  A
C135        C222   1.491       .  S
O136       Cr152   1.953       .  S
O137       Cr152   2.039       .  S
O137        C138   1.271       .  A
C138        O139   1.254       .  A
C138        C190   1.473       .  S
O139       Cr153   1.954       .  S
O140       Cr153   2.024       .  S
O140        C141   1.270       .  A
C141        C373   1.489       .  S
O142       Cr151   2.040       .  S
O142        C150   1.274       .  A
O143       Cr151   1.960       .  S
O143        C144   1.255       .  A
C144        O145   1.272       .  A
C144        C341   1.490       .  S
O145       Cr152   2.032       .  S
O146       Cr152   1.962       .  S
O146        C147   1.258       .  A
C147        O148   1.269       .  A
C147        C254   1.494       .  S
O148       Cr153   2.031       .  S
O149       Cr153   1.961       .  S
O149        C150   1.257       .  A
C150        C542   1.482       .  S
Cr151       O154   1.763       .  S
Cr152       O154   1.760       .  S
Cr153       O154   1.763       .  S
O155       Cr173   2.024       .  S
O155        C163   1.272       .  A
O156       Cr173   1.939       .  S
O156        C157   1.250       .  A
C157        O158   1.274       .  A
C157        C181   1.492       .  S
O158       Cr174   2.054       .  S
O159       Cr174   1.949       .  S
O159        C160   1.249       .  A
C160        O161   1.272       .  A
C160        C478   1.489       .  S
O161       Cr175   2.047       .  S
O162       Cr175   1.967       .  S
O162        C163   1.259       .  A
C163        C318   1.482       .  S
O164       Cr173   1.958       .  S
O164        C172   1.257       .  A
O165       Cr173   2.039       .  S
O165        C166   1.272       .  A
C166        O167   1.252       .  A
C166        C446   1.492       .  S
O167       Cr174   1.953       .  S
O168       Cr174   2.049       .  S
O168        C169   1.276       .  A
C169        O170   1.260       .  A
C169        C286   1.496       .  S
O170       Cr175   1.957       .  S
O171       Cr175   2.040       .  S
O171        C172   1.275       .  A
C172        C510   1.481       .  S
Cr173       O176   1.755       .  S
Cr174       O176   1.752       .  S
Cr175       O176   1.766       .  S
C177        C178   1.405       .  A
C177        C182   1.411       .  A
C177        H187   1.084       .  S
C178        C183   1.480       .  S
C178        C179   1.405       .  A
C179        C180   1.396       .  A
C179        C184   1.509       .  S
C180        C181   1.413       .  A
C180        H185   1.083       .  S
C181        C182   1.416       .  A
C182        C186   1.504       .  S
C183        C188   1.414       .  A
C183        C192   1.401       .  A
C184        H200   1.110       .  S
C184        H201   1.109       .  S
C184        H202   1.111       .  S
C186        H197   1.111       .  S
C186        H198   1.110       .  S
C186        H199   1.109       .  S
C188        C189   1.403       .  A
C188        C193   1.507       .  S
C189        C190   1.403       .  A
C189        H194   1.085       .  S
C190        C191   1.415       .  A
C191        C192   1.402       .  A
C191        C195   1.509       .  S
C192        H196   1.085       .  S
C193        H203   1.109       .  S
C193        H204   1.111       .  S
C193        H205   1.108       .  S
C195        H206   1.111       .  S
C195        H207   1.109       .  S
C195        H208   1.111       .  S
C209        C210   1.401       .  A
C209        C214   1.406       .  A
C209        H219   1.084       .  S
C210        C215   1.488       .  S
C210        C211   1.411       .  A
C211        C212   1.404       .  A
C211        C216   1.507       .  S
C212        C213   1.410       .  A
C212        H217   1.084       .  S
C213        C214   1.424       .  A
C214        C218   1.509   1_655  S
C215        C220   1.409       .  A
C215        C224   1.405       .  A
C216        H232   1.109       .  S
C216        H233   1.110       .  S
C216        H234   1.111       .  S
C218        H229   1.110       .  S
C218        H230   1.111   1_455  S
C218        H231   1.109       .  S
C220        C221   1.402       .  A
C220        C225   1.508       .  S
C221        C222   1.410       .  A
C221        H226   1.084       .  S
C222        C223   1.418       .  A
C223        C224   1.409       .  A
C223        C227   1.507       .  S
C224        H228   1.084       .  S
C225        H235   1.111       .  S
C225        H236   1.109       .  S
C225        H237   1.110       .  S
C227        H238   1.111       .  S
C227        H239   1.110       .  S
C227        H240   1.110       .  S
C241        C242   1.400       .  A
C241        C246   1.403       .  A
C241        H251   1.084       .  S
C242        C247   1.484       .  S
C242        C243   1.413       .  A
C243        C244   1.404       .  A
C243        C248   1.506       .  S
C244        C245   1.404       .  A
C244        H249   1.084       .  S
C245        C246   1.418       .  A
C246        C250   1.509       .  S
C247        C252   1.408       .  A
C247        C256   1.402       .  A
C248        H264   1.109       .  S
C248        H265   1.110       .  S
C248        H266   1.111       .  S
C250        H261   1.111       .  S
C250        H262   1.111       .  S
C250        H263   1.109       .  S
C252        C253   1.401       .  A
C252        C257   1.508       .  S
C253        C254   1.411       .  A
C253        H258   1.083       .  S
C254        C255   1.422       .  A
C255        C256   1.407       .  A
C255        C259   1.508       .  S
C256        H260   1.084       .  S
C257        H267   1.111       .  S
C257        H268   1.109       .  S
C257        H269   1.111       .  S
C259        H270   1.111       .  S
C259        H271   1.110       .  S
C259        H272   1.109       .  S
C273        C274   1.403       .  A
C273        C278   1.411   1_545  A
C273        H283   1.084       .  S
C274        C279   1.485       .  S
C274        C275   1.406   1_545  A
C275        C276   1.401       .  A
C275        C280   1.508       .  S
C276        C277   1.413       .  A
C276        H281   1.083       .  S
C277        C278   1.421       .  A
C278        C282   1.507       .  S
C279        C284   1.407       .  A
C279        C288   1.403       .  A
C280        H296   1.110   1_565  S
C280        H297   1.110   1_565  S
C280        H298   1.111       .  S
C282        H293   1.111   1_565  S
C282        H294   1.110       .  S
C282        H295   1.110       .  S
C284        C285   1.402       .  A
C284        C289   1.507       .  S
C285        C286   1.411       .  A
C285        H290   1.084       .  S
C286        C287   1.421       .  A
C287        C288   1.410       .  A
C287        C291   1.507       .  S
C288        H292   1.084       .  S
C289        H299   1.111       .  S
C289        H300   1.110       .  S
C289        H301   1.110       .  S
C291        H302   1.110       .  S
C291        H303   1.110       .  S
C291        H304   1.111       .  S
C305        C306   1.404       .  A
C305        C310   1.411       .  A
C305        H315   1.084       .  S
C306        C311   1.489       .  S
C306        C307   1.407       .  A
C307        C308   1.404       .  A
C307        C312   1.507       .  S
C308        C309   1.413       .  A
C308        H313   1.083       .  S
C309        C310   1.421       .  A
C310        C314   1.506       .  S
C311        C316   1.412       .  A
C311        C320   1.403       .  A
C312        H328   1.110       .  S
C312        H329   1.111       .  S
C312        H330   1.111       .  S
C314        H325   1.110       .  S
C314        H326   1.111       .  S
C314        H327   1.110       .  S
C316        C317   1.406       .  A
C316        C321   1.507       .  S
C317        C318   1.405       .  A
C317        H322   1.083       .  S
C318        C319   1.415       .  A
C319        C320   1.407       .  A
C319        C323   1.507       .  S
C320        H324   1.084       .  S
C321        H331   1.111       .  S
C321        H332   1.110       .  S
C321        H333   1.110       .  S
C323        H334   1.111       .  S
C323        H335   1.109       .  S
C323        H336   1.110       .  S
C337        C338   1.399       .  A
C337        C342   1.406       .  A
C337        H347   1.084       .  S
C338        C343   1.482       .  S
C338        C339   1.410       .  A
C339        C340   1.404       .  A
C339        C344   1.507       .  S
C340        C341   1.407       .  A
C340        H345   1.084       .  S
C341        C342   1.423       .  A
C342        C346   1.509       .  S
C343        C348   1.406   1_565  A
C343        C352   1.402       .  A
C344        H360   1.110       .  S
C344        H361   1.110       .  S
C344        H362   1.111       .  S
C346        H357   1.111       .  S
C346        H358   1.109       .  S
C346        H359   1.110       .  S
C348        C349   1.400       .  A
C348        C353   1.507       .  S
C349        C350   1.411       .  A
C349        H354   1.083       .  S
C350        C351   1.421       .  A
C351        C352   1.408   1_545  A
C351        C355   1.507       .  S
C352        H356   1.084       .  S
C353        H363   1.111       .  S
C353        H364   1.110       .  S
C353        H365   1.110       .  S
C355        H366   1.111       .  S
C355        H367   1.110       .  S
C355        H368   1.110       .  S
C369        C370   1.396       .  A
C369        C374   1.401       .  A
C369        H379   1.084       .  S
C370        C375   1.484       .  S
C370        C371   1.412       .  A
C371        C372   1.408       .  A
C371        C376   1.505       .  S
C372        C373   1.406       .  A
C372        H377   1.084       .  S
C373        C374   1.425       .  A
C374        C378   1.511       .  S
C375        C380   1.412       .  A
C375        C384   1.401       .  A
C376        H392   1.110       .  S
C376        H393   1.110       .  S
C376        H394   1.111       .  S
C378        H389   1.111       .  S
C378        H390   1.111       .  S
C378        H391   1.110       .  S
C380        C381   1.404       .  A
C380        C385   1.508       .  S
C381        C382   1.406       .  A
C381        H386   1.084       .  S
C382        C383   1.421       .  A
C383        C384   1.406       .  A
C383        C387   1.509       .  S
C384        H388   1.084       .  S
C385        H395   1.111       .  S
C385        H396   1.110       .  S
C385        H397   1.111       .  S
C387        H398   1.111       .  S
C387        H399   1.110       .  S
C387        H400   1.109       .  S
C401        C402   1.395   1_655  A
C401        C406   1.398   1_655  A
C401        H411   1.085   1_565  S
C402        C407   1.484   1_465  S
C402        C403   1.413       .  A
C403        C404   1.411       .  A
C403        C408   1.504       .  S
C404        C405   1.404       .  A
C404        H409   1.084       .  S
C405        C406   1.424       .  A
C406        C410   1.511       .  S
C407        C412   1.412   1_655  A
C407        C416   1.400       .  A
C408        H424   1.110       .  S
C408        H425   1.110       .  S
C408        H426   1.111       .  S
C410        H421   1.110       .  S
C410        H422   1.111   1_455  S
C410        H423   1.103       .  S
C412        C413   1.406   1_455  A
C412        C417   1.506       .  S
C413        C414   1.405       .  A
C413        H418   1.084   1_655  S
C414        C415   1.419       .  A
C415        C416   1.404       .  A
C415        C419   1.509       .  S
C416        H420   1.084   1_545  S
C417        H427   1.110       .  S
C417        H428   1.110       .  S
C417        H429   1.110       .  S
C419        H430   1.111       .  S
C419        H431   1.108       .  S
C419        H432   1.110       .  S
C433        C434   1.397       .  A
C433        C438   1.403       .  A
C433        H443   1.084       .  S
C434        C439   1.486       .  S
C434        C435   1.414       .  A
C435        C436   1.409       .  A
C435        C440   1.508       .  S
C436        C437   1.408       .  A
C436        H441   1.084       .  S
C437        C438   1.425       .  A
C438        C442   1.511       .  S
C439        C444   1.413       .  A
C439        C448   1.399       .  A
C440        H456   1.110       .  S
C440        H457   1.107       .  S
C440        H458   1.111       .  S
C442        H453   1.109       .  S
C442        H454   1.111       .  S
C442        H455   1.111       .  S
C444        C445   1.407       .  A
C444        C449   1.508       .  S
C445        C446   1.408       .  A
C445        H450   1.084       .  S
C446        C447   1.424       .  A
C447        C448   1.404       .  A
C447        C451   1.510       .  S
C448        H452   1.084       .  S
C449        H459   1.111       .  S
C449        H460   1.110       .  S
C449        H461   1.107       .  S
C451        H462   1.111       .  S
C451        H463   1.111       .  S
C451        H464   1.109       .  S
C465        C466   1.400       .  A
C465        C470   1.405       .  A
C465        H475   1.084       .  S
C466        C471   1.479       .  S
C466        C467   1.408       .  A
C467        C468   1.402       .  A
C467        C472   1.507       .  S
C468        C469   1.409       .  A
C468        H473   1.084       .  S
C469        C470   1.419       .  A
C470        C474   1.508       .  S
C471        C476   1.411       .  A
C471        C480   1.393       .  A
C472        H488   1.110       .  S
C472        H489   1.110       .  S
C472        H490   1.111       .  S
C474        H485   1.111       .  S
C474        H486   1.111       .  S
C474        H487   1.109   1_455  S
C476        C477   1.407       .  A
C476        C481   1.505       .  S
C477        C478   1.406       .  A
C477        H482   1.084       .  S
C478        C479   1.428       .  A
C479        C480   1.400       .  A
C479        C483   1.511       .  S
C480        H484   1.085       .  S
C481        H491   1.111       .  S
C481        H492   1.110       .  S
C481        H493   1.110       .  S
C483        H494   1.111       .  S
C483        H495   1.108       .  S
C483        H496   1.111       .  S
C497        C498   1.399       .  A
C497        C502   1.404       .  A
C497        H507   1.085       .  S
C498        C503   1.485       .  S
C498        C499   1.413       .  A
C499        C500   1.407       .  A
C499        C504   1.506       .  S
C500        C501   1.404       .  A
C500        H505   1.084       .  S
C501        C502   1.419       .  A
C502        C506   1.509       .  S
C503        C508   1.412       .  A
C503        C512   1.400       .  A
C504        H520   1.110       .  S
C504        H521   1.110       .  S
C504        H522   1.111       .  S
C506        H517   1.110       .  S
C506        H518   1.111       .  S
C506        H519   1.108       .  S
C508        C509   1.405       .  A
C508        C513   1.506       .  S
C509        C510   1.403       .  A
C509        H514   1.084       .  S
C510        C511   1.420       .  A
C511        C512   1.405       .  A
C511        C515   1.509       .  S
C512        H516   1.084       .  S
C513        H523   1.111       .  S
C513        H524   1.110       .  S
C513        H525   1.110       .  S
C515        H526   1.111       .  S
C515        H527   1.108       .  S
C515        H528   1.110       .  S
C529        C530   1.399       .  A
C529        C534   1.405       .  A
C529        H539   1.084       .  S
C530        C535   1.488       .  S
C530        C531   1.413       .  A
C531        C532   1.409       .  A
C531        C536   1.506       .  S
C532        C533   1.405       .  A
C532        H537   1.084       .  S
C533        C534   1.420       .  A
C534        C538   1.509       .  S
C535        C540   1.410       .  A
C535        C544   1.403       .  A
C536        H552   1.110       .  S
C536        H553   1.110       .  S
C536        H554   1.111       .  S
C538        H549   1.109       .  S
C538        H550   1.111       .  S
C538        H551   1.109       .  S
C540        C541   1.406       .  A
C540        C545   1.506       .  S
C541        C542   1.406       .  A
C541        H546   1.084       .  S
C542        C543   1.418       .  A
C543        C544   1.408       .  A
C543        C547   1.508       .  S
C544        H548   1.085       .  S
C545        H555   1.111       .  S
C545        H556   1.110       .  S
C545        H557   1.110       .  S
C547        H558   1.110       .  S
C547        H559   1.106       .  S
C547        H560   1.111       .  S
C561        C562   1.406   1_554  A
C561        C566   1.408   1_554  A
C561        H571   1.084       .  S
C562        C567   1.480   1_556  S
C562        C563   1.406       .  A
C563        C564   1.398       .  A
C563        C568   1.508       .  S
C564        C565   1.408       .  A
C564        H569   1.085       .  S
C565        C566   1.414       .  A
C566        C570   1.506   1_556  S
C567        C572   1.407       .  A
C567        C576   1.402   1_554  A
C568        H584   1.110       .  S
C568        H585   1.109       .  S
C568        H586   1.111       .  S
C570        H581   1.110       .  S
C570        H582   1.110       .  S
C570        H583   1.107   1_554  S
C572        C573   1.401       .  A
C572        C577   1.507       .  S
C573        C574   1.408       .  A
C573        H578   1.085       .  S
C574        C575   1.420       .  A
C575        C576   1.406   1_554  A
C575        C579   1.509       .  S
C576        H580   1.085       .  S
C577        H587   1.110       .  S
C577        H588   1.110       .  S
C577        H589   1.109   1_554  S
C579        H590   1.111       .  S
C579        H591   1.102       .  S
C579        H592   1.110   1_554  S
C593        C594   1.400   1_455  A
C593        C598   1.405   1_455  A
C593        H603   1.084       .  S
C594        C599   1.489   1_655  S
C594        C595   1.413       .  A
C595        C596   1.409       .  A
C595        C600   1.506       .  S
C596        C597   1.405       .  A
C596        H601   1.084       .  S
C597        C598   1.419       .  A
C598        C602   1.509   1_655  S
C599        C604   1.410       .  A
C599        C608   1.403       .  A
C600        H616   1.110       .  S
C600        H617   1.110       .  S
C600        H618   1.111       .  S
C602        H613   1.111       .  S
C602        H614   1.109       .  S
C602        H615   1.110   1_455  S
C604        C605   1.406       .  A
C604        C609   1.506   1_455  S
C605        C606   1.406       .  A
C605        H610   1.084       .  S
C606        C607   1.417       .  A
C607        C608   1.407       .  A
C607        C611   1.508       .  S
C608        H612   1.084       .  S
C609        H619   1.111       .  S
C609        H620   1.110       .  S
C609        H621   1.110       .  S
C611        H622   1.110       .  S
C611        H623   1.106       .  S
C611        H624   1.111       .  S
C625        C626   1.403       .  A
C625        C630   1.411       .  A
C625        H635   1.084       .  S
C626        C631   1.485   1_556  S
C626        C627   1.405   1_556  A
C627        C628   1.401   1_554  A
C627        C632   1.508       .  S
C628        C629   1.414       .  A
C628        H633   1.083       .  S
C629        C630   1.421       .  A
C630        C634   1.506       .  S
C631        C636   1.409       .  A
C631        C640   1.400       .  A
C632        H648   1.110       .  S
C632        H649   1.110       .  S
C632        H650   1.111       .  S
C634        H645   1.110       .  S
C634        H646   1.111       .  S
C634        H647   1.110       .  S
C636        C637   1.404       .  A
C636        C641   1.507       .  S
C637        C638   1.409       .  A
C637        H642   1.083       .  S
C638        C639   1.423       .  A
C639        C640   1.407       .  A
C639        C643   1.509       .  S
C640        H644   1.084       .  S
C641        H651   1.111       .  S
C641        H652   1.110   1_554  S
C641        H653   1.110       .  S
C643        H654   1.109   1_455  S
C643        H655   1.111       .  S
C643        H656   1.111       .  S
C657        C658   1.399       .  A
C657        C662   1.405       .  A
C657        H667   1.084       .  S
C658        C663   1.484       .  S
C658        C659   1.410       .  A
C659        C660   1.405       .  A
C659        C664   1.507       .  S
C660        C661   1.410       .  A
C660        H665   1.084       .  S
C661        C662   1.423       .  A
C662        C666   1.509       .  S
C663        C668   1.405       .  A
C663        C672   1.403   1_556  A
C664        H680   1.110       .  S
C664        H681   1.110       .  S
C664        H682   1.111       .  S
C666        H677   1.111       .  S
C666        H678   1.109       .  S
C666        H679   1.110       .  S
C668        C669   1.400   1_556  A
C668        C673   1.508       .  S
C669        C670   1.413       .  A
C669        H674   1.083       .  S
C670        C671   1.421       .  A
C671        C672   1.410       .  A
C671        C675   1.507       .  S
C672        H676   1.084       .  S
C673        H683   1.111       .  S
C673        H684   1.110       .  S
C673        H685   1.110       .  S
C675        H686   1.111       .  S
C675        H687   1.110       .  S
C675        H688   1.110       .  S
C689        C690   1.397   1_565  A
C689        C694   1.403       .  A
C689        H699   1.085       .  S
C690        C695   1.484       .  S
C690        C691   1.412       .  A
C691        C692   1.407   1_545  A
C691        C696   1.507       .  S
C692        C693   1.407       .  A
C692        H697   1.084       .  S
C693        C694   1.424       .  A
C694        C698   1.510       .  S
C695        C700   1.410       .  A
C695        C704   1.397       .  A
C696        H712   1.110       .  S
C696        H713   1.109       .  S
C696        H714   1.111       .  S
C698        H709   1.111       .  S
C698        H710   1.110       .  S
C698        H711   1.109       .  S
C700        C701   1.405       .  A
C700        C705   1.507       .  S
C701        C702   1.409       .  A
C701        H706   1.083       .  S
C702        C703   1.427       .  A
C703        C704   1.406       .  A
C703        C707   1.510       .  S
C704        H708   1.084       .  S
C705        H715   1.111       .  S
C705        H716   1.110       .  S
C705        H717   1.109       .  S
C707        H718   1.111       .  S
C707        H719   1.111       .  S
C707        H720   1.110       .  S
C721        C722   1.405       .  A
C721        C726   1.413       .  A
C721        H731   1.084       .  S
C722        C727   1.486       .  S
C722        C723   1.406       .  A
C723        C724   1.399       .  A
C723        C728   1.508       .  S
C724        C725   1.411       .  A
C724        H729   1.084       .  S
C725        C726   1.420       .  A
C726        C730   1.506       .  S
C727        C732   1.411       .  A
C727        C736   1.402       .  A
C728        H744   1.110       .  S
C728        H745   1.110       .  S
C728        H746   1.111       .  S
C730        H741   1.110       .  S
C730        H742   1.111       .  S
C730        H743   1.110       .  S
C732        C733   1.405       .  A
C732        C737   1.506       .  S
C733        C734   1.406       .  A
C733        H738   1.085       .  S
C734        C735   1.417       .  A
C735        C736   1.405       .  A
C735        C739   1.508       .  S
C736        H740   1.085       .  S
C737        H747   1.111       .  S
C737        H748   1.110       .  S
C737        H749   1.110       .  S
C739        H750   1.110       .  S
C739        H751   1.107       .  S
C739        H752   1.111       .  S
C753        C754   1.402       .  A
C753        C758   1.407       .  A
C753        H763   1.084   1_455  S
C754        C759   1.493   1_455  S
C754        C755   1.414       .  A
C755        C756   1.409       .  A
C755        C760   1.506       .  S
C756        C757   1.405       .  A
C756        H761   1.084       .  S
C757        C758   1.420       .  A
C758        C762   1.508       .  S
C759        C764   1.413       .  A
C759        C768   1.402   1_655  A
C760        H776   1.110       .  S
C760        H777   1.110       .  S
C760        H778   1.111       .  S
C762        H773   1.110   1_455  S
C762        H774   1.111       .  S
C762        H775   1.108       .  S
C764        C765   1.409       .  A
C764        C769   1.506       .  S
C765        C766   1.405       .  A
C765        H770   1.084       .  S
C766        C767   1.420       .  A
C767        C768   1.408   1_655  A
C767        C771   1.508   1_655  S
C768        H772   1.084       .  S
C769        H779   1.111       .  S
C769        H780   1.110       .  S
C769        H781   1.110       .  S
C771        H782   1.111       .  S
C771        H783   1.108   1_455  S
C771        H784   1.110       .  S
C785        C786   1.398       .  A
C785        C790   1.401       .  A
C785        H795   1.085   1_545  S
C786        C791   1.477   1_546  S
C786        C787   1.412       .  A
C787        C788   1.403       .  A
C787        C792   1.507   1_456  S
C788        C789   1.403       .  A
C788        H793   1.084       .  S
C789        C790   1.420       .  A
C790        C794   1.510       .  S
C791        C796   1.413   1_454  A
C791        C800   1.393       .  A
C792        H808   1.110       .  S
C792        H809   1.110       .  S
C792        H810   1.110       .  S
C794        H805   1.110       .  S
C794        H806   1.110       .  S
C794        H807   1.108       .  S
C796        C797   1.408   1_556  A
C796        C801   1.505       .  S
C797        C798   1.403       .  A
C797        H802   1.084   1_554  S
C798        C799   1.423       .  A
C799        C800   1.396   1_655  A
C799        C803   1.511   1_655  S
C800        H804   1.085       .  S
C801        H811   1.111       .  S
C801        H812   1.110       .  S
C801        H813   1.110       .  S
C803        H814   1.111       .  S
C803        H815   1.108       .  S
C803        H816   1.109   1_455  S
C817        C818   1.401       .  A
C817        C822   1.407       .  A
C817        H827   1.084       .  S
C818        C823   1.484       .  S
C818        C819   1.407       .  A
C819        C820   1.404       .  A
C819        C824   1.507       .  S
C820        C821   1.411       .  A
C820        H825   1.084       .  S
C821        C822   1.421       .  A
C822        C826   1.507       .  S
C823        C828   1.405       .  A
C823        C832   1.403       .  A
C824        H840   1.110       .  S
C824        H841   1.110       .  S
C824        H842   1.111       .  S
C826        H837   1.111       .  S
C826        H838   1.109       .  S
C826        H839   1.110       .  S
C828        C829   1.402       .  A
C828        C833   1.507       .  S
C829        C830   1.415       .  A
C829        H834   1.083       .  S
C830        C831   1.421       .  A
C831        C832   1.409       .  A
C831        C835   1.507       .  S
C832        H836   1.084       .  S
C833        H843   1.111       .  S
C833        H844   1.110       .  S
C833        H845   1.110       .  S
C835        H846   1.110       .  S
C835        H847   1.110       .  S
C835        H848   1.111       .  S
C849        C850   1.405       .  A
C849        C854   1.412   1_565  A
C849        H859   1.084       .  S
C850        C855   1.489       .  S
C850        C851   1.407   1_565  A
C851        C852   1.401       .  A
C851        C856   1.508       .  S
C852        C853   1.413       .  A
C852        H857   1.083       .  S
C853        C854   1.421       .  A
C854        C858   1.506       .  S
C855        C860   1.412       .  A
C855        C864   1.402       .  A
C856        H872   1.109       .  S
C856        H873   1.110       .  S
C856        H874   1.111       .  S
C858        H869   1.110       .  S
C858        H870   1.111   1_545  S
C858        H871   1.110       .  S
C860        C861   1.407       .  A
C860        C865   1.507       .  S
C861        C862   1.406       .  A
C861        H866   1.084       .  S
C862        C863   1.419       .  A
C863        C864   1.407       .  A
C863        C867   1.508       .  S
C864        H868   1.084       .  S
C865        H875   1.111       .  S
C865        H876   1.110       .  S
C865        H877   1.110       .  S
C867        H878   1.109       .  S
C867        H879   1.110       .  S
C867        H880   1.111       .  S
C881        C882   1.401       .  A
C881        C886   1.406       .  A
C881        H891   1.085       .  S
C882        C887   1.482   1_556  S
C882        C883   1.407       .  A
C883        C884   1.403       .  A
C883        C888   1.507   1_556  S
C884        C885   1.411       .  A
C884        H889   1.084       .  S
C885        C886   1.422       .  A
C886        C890   1.509       .  S
C887        C892   1.406       .  A
C887        C896   1.404       .  A
C888        H904   1.110       .  S
C888        H905   1.109       .  S
C888        H906   1.111       .  S
C890        H901   1.110       .  S
C890        H902   1.111       .  S
C890        H903   1.102       .  S
C892        C893   1.400       .  A
C892        C897   1.508   1_554  S
C893        C894   1.411       .  A
C893        H898   1.084       .  S
C894        C895   1.417       .  A
C895        C896   1.409       .  A
C895        C899   1.506       .  S
C896        H900   1.084       .  S
C897        H907   1.111       .  S
C897        H908   1.110       .  S
C897        H909   1.109       .  S
C899        H910   1.109       .  S
C899        H911   1.110       .  S
C899        H912   1.111       .  S
C913        C914   1.397       .  A
C913        C918   1.405       .  A
C913        H923   1.085       .  S
C914        C919   1.488   1_556  S
C914        C915   1.412       .  A
C915        C916   1.409       .  A
C915        C920   1.507       .  S
C916        C917   1.410       .  A
C916        H921   1.084       .  S
C917        C918   1.428       .  A
C918        C922   1.510   1_655  S
C919        C924   1.414       .  A
C919        C928   1.400   1_554  A
C920        H936   1.110       .  S
C920        H937   1.108       .  S
C920        H938   1.111       .  S
C922        H933   1.110       .  S
C922        H934   1.111       .  S
C922        H935   1.110       .  S
C924        C925   1.408       .  A
C924        C929   1.507       .  S
C925        C926   1.406       .  A
C925        H930   1.084       .  S
C926        C927   1.420       .  A
C927        C928   1.405   1_554  A
C927        C931   1.510       .  S
C928        H932   1.084       .  S
C929        H939   1.111       .  S
C929        H940   1.110       .  S
C929        H941   1.107       .  S
C931        H942   1.111   1_554  S
C931        H943   1.111       .  S
C931        H944   1.109       .  S
