geometry optimzed in LAMMPS
_audit_creation_date              2020-12-01 
_audit_creation_method            'lammps2cif' 
_symmetry_space_group_name_H-M    'P1' 
_symmetry_Int_Tables_number       1 
_symmetry_cell_setting            triclinic 
loop_ 
_symmetry_equiv_pos_as_xyz 
  x,y,z 
_cell_length_a                    29.76575484 
_cell_length_b                    44.17446580986828 
_cell_length_c                    56.280976255444195 
_cell_angle_alpha                 89.30847486669117 
_cell_angle_beta                  90.11047434099703 
_cell_angle_gamma                 90.39000215464111 
loop_ 
_atom_site_label 
_atom_site_type_symbol 
_atom_site_fract_x 
_atom_site_fract_y 
_atom_site_fract_z 
_atom_site_charge 
O1          O  0.31077609  0.86395745  0.39265855    -0.85000
O2          O  0.28161557  0.91895453  0.37662989    -0.82000
C3          C  0.28339406  0.94713364  0.37306082     0.98500
O4          O  0.31970282  0.96005790  0.36737055    -0.82000
O5          O  0.37540481  0.95769032  0.40642775    -0.84700
C6          C  0.40282022  0.94760546  0.42157530     1.03000
O7          O  0.42400430  0.92357705  0.41767220    -0.77500
O8          O  0.35654450  0.88153732  0.41995194    -0.77600
C9          C  0.32012365  0.86865927  0.41437938     1.03000
O10         O  0.36549333  0.85910577  0.34945575    -0.85000
O11         O  0.33110178  0.91375698  0.33295403    -0.82000
C12         C  0.36100143  0.93160872  0.32465713     0.98500
O13         O  0.39147665  0.94207026  0.33791182    -0.82100
O14         O  0.44969481  0.94425663  0.37604584    -0.84700
C15         C  0.47589731  0.92185986  0.37482509     1.03000
O16         O  0.46100661  0.89514400  0.37730936    -0.77500
O17         O  0.39895653  0.84808700  0.38298899    -0.77600
C18         C  0.38993921  0.84172057  0.36171789     1.02900
Cr19       Cr  0.32605499  0.89021231  0.36391875     1.93700
Cr20       Cr  0.38317497  0.94779545  0.37237133     1.93200
Cr21       Cr  0.40719275  0.88847320  0.39776934     1.39100
O22         O  0.37210958  0.90880361  0.37774585    -1.22700
O23         O  0.65651918  0.59765308  0.39873314    -0.85000
O24         O  0.67620993  0.55341178  0.36591006    -0.82000
C25         C  0.67158061  0.52913666  0.37792493     0.98500
O26         O  0.63367966  0.52152958  0.38583524    -0.82000
O27         O  0.54531721  0.52337323  0.39811907    -0.84700
C28         C  0.54364023  0.53677378  0.41771646     1.03000
O29         O  0.55316248  0.56447779  0.41925185    -0.77500
O30         O  0.59278318  0.61871261  0.40834769    -0.77600
C31         C  0.63290445  0.61184957  0.41354636     1.03000
O32         O  0.60959122  0.63227961  0.36209387    -0.85000
O33         O  0.62149239  0.58357708  0.33085718    -0.82000
C34         C  0.61720683  0.55683628  0.32314232     0.98500
O35         O  0.61055255  0.53503638  0.33748881    -0.82100
O36         O  0.52260841  0.54217456  0.35104075    -0.84700
C37         C  0.48894243  0.55204326  0.36194951     1.03000
O38         O  0.49397724  0.56919046  0.37964910    -0.77500
O39         O  0.53794932  0.62169623  0.36571606    -0.77600
C40         C  0.56876695  0.63977959  0.35957491     1.02900
Cr41       Cr  0.63733959  0.59064330  0.36509911     1.93700
Cr42       Cr  0.57881571  0.53359228  0.36857857     1.93200
Cr43       Cr  0.54754491  0.59219255  0.39178337     1.39100
O44         O  0.58766889  0.57217778  0.37504030    -1.22700
O45         O  0.30026309  0.10613779  0.09740353    -0.85000
O46         O  0.29436490  0.05903475  0.12907153    -0.82000
C47         C  0.29190426  0.03569093  0.11617710     0.98500
O48         O  0.32551200  0.02657018  0.10486595    -0.82000
O49         O  0.40615609  0.02686803  0.08183338    -0.84700
C50         C  0.39771090  0.03950264  0.06219792     1.03000
O51         O  0.38683024  0.06695155  0.06120710    -0.77500
O52         O  0.35653483  0.12212694  0.07538270    -0.77600
C53         C  0.31474127  0.11861523  0.07862342     1.03000
O54         O  0.36821482  0.13553698  0.12644774    -0.85000
O55         O  0.36647567  0.08500945  0.15700323    -0.82000
C56         C  0.36975858  0.05771394  0.16379562     0.98500
O57         O  0.36953833  0.03691356  0.14865832    -0.82100
O58         O  0.44950699  0.04559799  0.12419632    -0.84700
C59         C  0.47721042  0.05692093  0.10955095     1.03000
O60         O  0.46395860  0.07231244  0.09178825    -0.77500
O61         O  0.43141819  0.12500848  0.10839349    -0.77600
C62         C  0.40865514  0.14200396  0.12133426     1.02900
Cr63       Cr  0.33573833  0.09519170  0.12616632     1.93700
Cr64       Cr  0.38686628  0.03720996  0.11450948     1.93200
Cr65       Cr  0.40703739  0.09522551  0.08611725     1.39100
O66         O  0.37659088  0.07610453  0.10896005    -1.22700
O67         O  0.63969129  0.36175273  0.09694055    -0.85000
O68         O  0.67893978  0.41409070  0.11121370    -0.82000
C69         C  0.68336055  0.44211951  0.11413941     0.98500
O70         O  0.65004374  0.45839650  0.11943447    -0.82000
O71         O  0.58854310  0.46127714  0.08209104    -0.84700
C72         C  0.55745465  0.45334013  0.06825072     1.03000
O73         O  0.53587256  0.42922529  0.07234817    -0.77500
O74         O  0.59828907  0.38384329  0.06957732    -0.77600
C75         C  0.63182996  0.36794709  0.07520872     1.03000
O76         O  0.58628397  0.36143211  0.14082010    -0.85000
O77         O  0.63233749  0.41263417  0.15578038    -0.82000
C78         C  0.60660969  0.43264605  0.16411198     0.98500
O79         O  0.57752283  0.44521539  0.15114892    -0.82100
O80         O  0.51586452  0.45048529  0.11513309    -0.84700
C81         C  0.48704366  0.42917692  0.11680107     1.03000
O82         O  0.49812318  0.40206251  0.11314713    -0.77500
O83         O  0.55236829  0.35208281  0.10727725    -0.77600
C84         C  0.55936118  0.34562038  0.12885447     1.02900
Cr85       Cr  0.63071109  0.38906057  0.12523141     1.93700
Cr86       Cr  0.58352213  0.45057367  0.11649532     1.93200
Cr87       Cr  0.54945151  0.39303324  0.09211152     1.39100
O88         O  0.58797070  0.41103678  0.11149988    -1.22700
O89         O  0.88170918  0.86942329  0.08103841    -0.85000
O90         O  0.89949735  0.92788999  0.06760616    -0.82000
C91         C  0.90089057  0.95634033  0.06825374     0.98500
O92         O  0.89438543  0.96996096  0.08754225    -0.82000
O93         O  0.80889030  0.95683971  0.10551454    -0.84700
C94         C  0.77752282  0.94229331  0.11563321     1.03000
O95         O  0.78567020  0.91883318  0.12788418    -0.77500
O96         O  0.81452317  0.87917397  0.09445670    -0.77600
C97         C  0.83962225  0.87013316  0.07792111     1.03000
O98         O  0.94384476  0.87677908  0.12043268    -0.85000
O99         O  0.96422779  0.93380856  0.10481630    -0.82000
C100        C  0.96579940  0.95099027  0.12263780     0.98500
O101        O  0.93062176  0.95799366  0.13358999    -0.82100
O102        O  0.84632978  0.95030105  0.15185214    -0.84700
C103        C  0.85180077  0.92906142  0.16683108     1.03000
O104        O  0.85643436  0.90198365  0.15979686    -0.77500
O105        O  0.87985348  0.85454776  0.12847322    -0.77600
C106        C  0.92246628  0.85441513  0.12865126     1.02900
Cr107      Cr  0.91888319  0.90291114  0.09499833     1.93700
Cr108      Cr  0.87031715  0.95562932  0.11905073     1.93200
Cr109      Cr  0.83721951  0.89025822  0.12674292     1.39100
O110        O  0.87569341  0.91635126  0.11365972    -1.22700
O111        O  0.09838694  0.59819641  0.06124327    -0.85000
O112        O  0.03462128  0.55416176  0.06946781    -0.82000
C113        C  0.05750346  0.53060986  0.06703602     0.98500
O114        O  0.08921309  0.52509303  0.08113602    -0.82000
O115        O  0.15051261  0.53183539  0.11762034    -0.84700
C116        C  0.18386593  0.54780841  0.11115045     1.03000
O117        O  0.17973491  0.57559444  0.10647674    -0.77500
O118        O  0.14093571  0.62451386  0.08556139    -0.77600
C119        C  0.13179900  0.61537594  0.06461893     1.03000
O120        O  0.05499473  0.63582064  0.09440102    -0.85000
O121        O  0.99954273  0.58727690  0.10720164    -0.82000
C122        C  0.98794390  0.56072118  0.11330231     0.98500
O123        O  0.01631563  0.53924232  0.11344904    -0.82100
O124        O  0.07911962  0.54792649  0.14839269    -0.84700
C125        C  0.10808870  0.56222717  0.16018254     1.03000
O126        O  0.13197656  0.58284277  0.15035997    -0.77500
O127        O  0.08561442  0.63209716  0.12940019    -0.77600
C128        C  0.05966812  0.64570468  0.11509457     1.02900
Cr129      Cr  0.05010020  0.59284112  0.08480292     1.93700
Cr130      Cr  0.08419155  0.53921054  0.11439640     1.93200
Cr131      Cr  0.13098817  0.60218528  0.11727343     1.39100
O132        O  0.08863616  0.57796361  0.10584916    -1.22700
O133        O  0.87495205  0.12105225  0.40960934    -0.85000
O134        O  0.90267038  0.06517374  0.42333827    -0.82000
C135        C  0.90785380  0.03698241  0.42328788     0.98500
O136        O  0.90553037  0.02244669  0.40418238    -0.82000
O137        O  0.81783880  0.02785433  0.39051977    -0.84700
C138        C  0.78223320  0.03783109  0.38147213     1.03000
O139        O  0.78334235  0.06028769  0.36717927    -0.77500
O140        O  0.80866546  0.10498412  0.39823246    -0.77600
C141        C  0.83337129  0.11733424  0.41368962     1.03000
O142        O  0.93397897  0.11697989  0.36849353    -0.85000
O143        O  0.96526310  0.06233409  0.38479080    -0.82000
C144        C  0.96772756  0.04418087  0.36753759     0.98500
O145        O  0.93290653  0.03580830  0.35667663    -0.82100
O146        O  0.84534924  0.03468588  0.34175210    -0.84700
C147        C  0.84586815  0.05556623  0.32616215     1.03000
O148        O  0.84694109  0.08308173  0.33247678    -0.77500
O149        O  0.86593235  0.13361160  0.36204443    -0.77600
C150        C  0.90834611  0.13743686  0.36100910     1.02900
Cr151      Cr  0.91615136  0.09026169  0.39513285     1.93700
Cr152      Cr  0.87513845  0.03321863  0.37358157     1.93200
Cr153      Cr  0.82947642  0.09428491  0.36571183     1.39100
O154        O  0.87393653  0.07267326  0.37796992    -1.22700
O155        O  0.08196258  0.39710840  0.41921208    -0.85000
O156        O  0.01710473  0.43851269  0.40846212    -0.82000
C157        C  0.03892768  0.46240581  0.41249158     0.98500
O158        O  0.07009002  0.47053789  0.39880057    -0.82000
O159        O  0.13521164  0.46864774  0.36492577    -0.84700
C160        C  0.17006814  0.45632281  0.37303279     1.03000
O161        O  0.17065976  0.42843758  0.37818789    -0.77500
O162        O  0.13541834  0.37617060  0.39809940    -0.77600
C163        C  0.11857764  0.38305050  0.41820478     1.03000
O164        O  0.04863222  0.35854817  0.38324962    -0.85000
O165        O  0.99043286  0.40441860  0.36880015    -0.82000
C166        C  0.97812731  0.43042430  0.36193942     0.98500
O167        O  0.00418517  0.45307800  0.36343860    -0.82100
O168        O  0.07220588  0.44726556  0.33153514    -0.84700
C169        C  0.10497962  0.43517427  0.32128993     1.03000
O170        O  0.13056539  0.41685456  0.33249251    -0.77500
O171        O  0.09006467  0.36426155  0.35163984    -0.77600
C172        C  0.06144616  0.34907154  0.36339832     1.02900
Cr173      Cr  0.03818234  0.40090237  0.39324731     1.93700
Cr174      Cr  0.07103031  0.45661111  0.36550847     1.93200
Cr175      Cr  0.12755463  0.39774771  0.36572315     1.39100
O176        O  0.07915713  0.41835279  0.37449916    -1.22700
O177        O  0.59744919  0.09944427  0.56783459    -0.85000
O178        O  0.53945516  0.05327809  0.57764888    -0.82000
C179        C  0.56316289  0.03056851  0.57282202     0.98500
O180        O  0.59554068  0.02326794  0.58609959    -0.82000
O181        O  0.66094056  0.02702770  0.62146875    -0.84700
C182        C  0.69362478  0.04137446  0.61241010     1.03000
O183        O  0.68937038  0.06847035  0.60604523    -0.77500
O184        O  0.65215418  0.11957880  0.58898613    -0.77600
C185        C  0.63415036  0.11370233  0.56895432     1.03000
O186        O  0.56271414  0.13316606  0.60617379    -0.85000
O187        O  0.51086210  0.08349541  0.61952858    -0.82000
C188        C  0.49916110  0.05642061  0.62343662     0.98500
O189        O  0.52715261  0.03519900  0.62079151    -0.82100
O190        O  0.59350646  0.04479830  0.65381341    -0.84700
C191        C  0.62602089  0.05713617  0.66439754     1.03000
O192        O  0.65168955  0.07589346  0.65337887    -0.77500
O193        O  0.60979231  0.12860598  0.63584323    -0.77600
C194        C  0.57987351  0.14339070  0.62493876     1.02900
Cr195      Cr  0.55617714  0.09118099  0.59436133     1.93700
Cr196      Cr  0.59475258  0.03576504  0.61983213     1.93200
Cr197      Cr  0.64674774  0.09658378  0.62058471     1.39100
O198        O  0.59940604  0.07472758  0.61181567    -1.22700
O199        O  0.36636037  0.38685514  0.56458340    -0.85000
O200        O  0.41316241  0.43829051  0.57142861    -0.82000
C201        C  0.38428340  0.45879865  0.56807570     0.98500
O202        O  0.35516331  0.46438732  0.58357966    -0.82000
O203        O  0.29860113  0.45469446  0.62185184    -0.84700
C204        C  0.26668968  0.43972660  0.61308843     1.03000
O205        O  0.27320877  0.41346421  0.60570467    -0.77500
O206        O  0.31464677  0.36505836  0.58696248    -0.77600
C207        C  0.33104597  0.37129052  0.56656078     1.03000
O208        O  0.41312346  0.35767916  0.60292512    -0.85000
O209        O  0.45691451  0.41177881  0.61176635    -0.82000
C210        C  0.46281634  0.43950164  0.61589129     0.98500
O211        O  0.43050624  0.45770610  0.61454932    -0.82100
O212        O  0.37345007  0.44017281  0.65027885    -0.84700
C213        C  0.34361661  0.42604665  0.66186531     1.03000
O214        O  0.31861320  0.40645346  0.65158047    -0.77500
O215        O  0.36425567  0.35712838  0.63208375    -0.77600
C216        C  0.39717254  0.34551924  0.62150665     1.02900
Cr217      Cr  0.40868174  0.39947654  0.58943997     1.93700
Cr218      Cr  0.36448687  0.45088989  0.61678042     1.93200
Cr219      Cr  0.32155764  0.38731265  0.61841484     1.39100
O220        O  0.36500455  0.41217380  0.60837648    -1.22700
O221        O  0.61593525  0.86701229  0.91363392    -0.85000
O222        O  0.57344337  0.92039849  0.92365370    -0.82000
C223        C  0.56341845  0.94793710  0.92120948     0.98500
O224        O  0.56370145  0.96062110  0.90111316    -0.82000
O225        O  0.65138948  0.96422911  0.88653313    -0.84700
C226        C  0.68899628  0.95662880  0.87841222     1.03000
O227        O  0.69266631  0.93251925  0.86662442    -0.77500
O228        O  0.67830895  0.88792223  0.90062504    -0.77600
C229        C  0.65666269  0.87416167  0.91686950     1.03000
O230        O  0.55753800  0.85983725  0.87310455    -0.85000
O231        O  0.51275061  0.91107926  0.88502879    -0.82000
C232        C  0.50516451  0.92776073  0.86711511     0.98500
O233        O  0.53680810  0.94056436  0.85581590    -0.82100
O234        O  0.62359782  0.94997142  0.83942055    -0.84700
C235        C  0.63095920  0.92863395  0.82526334     1.03000
O236        O  0.63590527  0.90177530  0.83326111    -0.77500
O237        O  0.62864001  0.85188063  0.86599519    -0.77600
C238        C  0.58814680  0.84260392  0.86612920     1.02900
Cr239      Cr  0.56814975  0.89121687  0.89722506     1.93700
Cr240      Cr  0.59486307  0.95051685  0.87127794     1.93200
Cr241      Cr  0.65489362  0.89456577  0.86741419     1.39100
O242        O  0.60564140  0.91200393  0.87850461    -1.22700
O243        O  0.35816721  0.62075852  0.90602866    -0.85000
O244        O  0.37956230  0.56411916  0.92133249    -0.82000
C245        C  0.38254137  0.53578342  0.92161885     0.98500
O246        O  0.37983155  0.52104781  0.90260000    -0.82000
O247        O  0.29592947  0.52909029  0.88136354    -0.84700
C248        C  0.26472599  0.54178143  0.86983722     1.03000
O249        O  0.27277831  0.56474067  0.85689978    -0.77500
O250        O  0.29440675  0.60822168  0.88908024    -0.77600
C251        C  0.31565194  0.61929688  0.90645484     1.03000
O252        O  0.42661922  0.61664832  0.86974768    -0.85000
O253        O  0.44975819  0.55943806  0.88680794    -0.82000
C254        C  0.45399148  0.54045028  0.87021726     0.98500
O255        O  0.42081104  0.53254773  0.85779135    -0.82100
O256        O  0.33832683  0.53450104  0.83609448    -0.84700
C257        C  0.34270153  0.55510721  0.82046163     1.03000
O258        O  0.34585261  0.58264677  0.82668184    -0.77500
O259        O  0.36166700  0.63299317  0.85689889    -0.77600
C260        C  0.40348425  0.63701875  0.85988243     1.02900
Cr261      Cr  0.40032115  0.58890824  0.89411965     1.93700
Cr262      Cr  0.35881183  0.53264783  0.86993089     1.93200
Cr263      Cr  0.32203645  0.59566127  0.85848930     1.39100
O264        O  0.36076675  0.57245219  0.87409600    -1.22700
O265        O  0.15081819  0.86043020  0.59816702    -0.85000
O266        O  0.18914951  0.91298813  0.61246097    -0.82000
C267        C  0.19317509  0.94089994  0.61604268     0.98500
O268        O  0.16002869  0.95635977  0.62282438    -0.82000
O269        O  0.09867761  0.95923049  0.58593677    -0.84700
C270        C  0.06791591  0.95150999  0.57188423     1.03000
O271        O  0.04546999  0.92768676  0.57584518    -0.77500
O272        O  0.10767754  0.88265576  0.57169054    -0.77600
C273        C  0.14206704  0.86725688  0.57664198     1.03000
O274        O  0.09985648  0.85798813  0.64265638    -0.85000
O275        O  0.14509203  0.91020453  0.65790126    -0.82000
C276        C  0.11898099  0.92965418  0.66683187     0.98500
O277        O  0.08813575  0.94127641  0.65450534    -0.82100
O278        O  0.02601474  0.94764670  0.61885430    -0.84700
C279        C  0.99757904  0.92613964  0.62058723     1.03000
O280        O  0.00899767  0.89917556  0.61666305    -0.77500
O281        O  0.06332101  0.84959994  0.60961205    -0.77600
C282        C  0.07281506  0.84207745  0.63074591     1.02900
Cr283      Cr  0.14255864  0.88693628  0.62699811     1.93700
Cr284      Cr  0.09366454  0.94791914  0.62003944     1.93200
Cr285      Cr  0.05960378  0.89094202  0.59497281     1.39100
O286        O  0.09855310  0.90863292  0.61428401    -1.22700
O287        O  0.80682252  0.61576572  0.59123090    -0.85000
O288        O  0.77764102  0.56173906  0.60884839    -0.82000
C289        C  0.77889252  0.53422470  0.61479878     0.98500
O290        O  0.81369967  0.52337098  0.62403049    -0.82000
O291        O  0.87280062  0.52451037  0.58628947    -0.84700
C292        C  0.90096232  0.53464446  0.57147969     1.03000
O293        O  0.92466360  0.55767425  0.57619098    -0.77500
O294        O  0.86480476  0.60269259  0.56939316    -0.77600
C295        C  0.82586715  0.61335718  0.57110535     1.03000
O296        O  0.85180302  0.62763846  0.63714550    -0.85000
O297        O  0.81981511  0.57264961  0.65510822    -0.82000
C298        C  0.84933183  0.55619551  0.66538378     0.98500
O299        O  0.88167038  0.54531374  0.65388303    -0.82100
O300        O  0.94403876  0.53828908  0.61859133    -0.84700
C301        C  0.97048815  0.56029501  0.62187301     1.03000
O302        O  0.95708504  0.58692032  0.61833611    -0.77500
O303        O  0.90114929  0.63457986  0.60872390    -0.77600
C304        C  0.88267682  0.64320833  0.62753963     1.02900
Cr305      Cr  0.81814705  0.59317939  0.62239909     1.93700
Cr306      Cr  0.87725527  0.53617677  0.62002152     1.93200
Cr307      Cr  0.90841877  0.59402086  0.59477721     1.39100
O308        O  0.86772319  0.57483375  0.61257240    -1.22700
O309        O  0.18108956  0.10937804  0.89238851    -0.85000
O310        O  0.19901042  0.06687702  0.85926571    -0.82000
C311        C  0.20686448  0.04373281  0.87195894     0.98500
O312        O  0.17537112  0.03014660  0.88283168    -0.82000
O313        O  0.09023924  0.01990471  0.90285522    -0.84700
C314        C  0.08703198  0.03259355  0.92265982     1.03000
O315        O  0.09268502  0.06068819  0.92428077    -0.77500
O316        O  0.11987815  0.11780003  0.91318907    -0.77600
C317        C  0.16239927  0.11829520  0.91116248     1.03000
O318        O  0.11408614  0.13565798  0.86219249    -0.85000
O319        O  0.12475762  0.08731968  0.83041087    -0.82000
C320        C  0.12756989  0.06036187  0.82308496     0.98500
O321        O  0.13345751  0.03898363  0.83782627    -0.82100
O322        O  0.05023946  0.03618650  0.85922846    -0.84700
C323        C  0.01723240  0.04501549  0.87133973     1.03000
O324        O  0.02267409  0.06247593  0.88891038    -0.77500
O325        O  0.04966189  0.12015760  0.87650331    -0.77600
C326        C  0.07291233  0.14002362  0.86594927     1.02900
Cr327      Cr  0.15120573  0.09803917  0.86220409     1.93700
Cr328      Cr  0.11253413  0.03466903  0.87134031     1.93200
Cr329      Cr  0.07448119  0.08916159  0.89877543     1.39100
O330        O  0.11243456  0.07409379  0.87755010    -1.22700
O331        O  0.80087964  0.36024432  0.89219877    -0.85000
O332        O  0.76928820  0.41428950  0.87556605    -0.82000
C333        C  0.77020959  0.44278012  0.87415612     0.98500
O334        O  0.80626380  0.45693358  0.87003317    -0.82000
O335        O  0.86356801  0.45317841  0.90795874    -0.84700
C336        C  0.89161525  0.44257555  0.92246984     1.03000
O337        O  0.91455409  0.41998522  0.91696446    -0.77500
O338        O  0.84661658  0.37807125  0.91953841    -0.77600
C339        C  0.81031661  0.36500361  0.91392771     1.03000
O340        O  0.85635344  0.35554558  0.84906076    -0.85000
O341        O  0.82076438  0.41013777  0.83251115    -0.82000
C342        C  0.84834601  0.43016705  0.82509130     0.98500
O343        O  0.87683170  0.44195656  0.83882760    -0.82100
O344        O  0.93739128  0.44186162  0.87543964    -0.84700
C345        C  0.96356524  0.41952126  0.87299081     1.03000
O346        O  0.94942711  0.39270043  0.87623737    -0.77500
O347        O  0.88867239  0.34491523  0.88286452    -0.77600
C348        C  0.88041982  0.33823589  0.86163934     1.02900
Cr349      Cr  0.81567135  0.38643546  0.86334229     1.93700
Cr350      Cr  0.87026913  0.44517340  0.87345635     1.93200
Cr351      Cr  0.89674042  0.38537771  0.89718068     1.39100
O352        O  0.86076604  0.40570109  0.87757786    -1.22700
C353        C  0.95532692  0.26735743  0.85754150     0.19100
C354        C  0.00129872  0.26290168  0.86185215    -0.19000
C355        C  0.01963478  0.23383850  0.86208658    -0.11300
C356        C  0.99227026  0.20825234  0.85822545     0.21300
C357        C  0.94638883  0.21273876  0.85329143    -0.20600
C358        C  0.92809710  0.24201655  0.85273048    -0.11500
C359        C  0.00981799  0.17684355  0.86169576    -0.15600
C360        C  0.05348153  0.16967339  0.85887961    -0.29500
C361        C  0.93644927  0.29787057  0.86204857    -0.03800
C362        C  0.89848414  0.30938295  0.85244332    -0.40300
H363        H  0.02289836  0.28197008  0.86599113     0.12500
H364        H  0.05477335  0.23149798  0.86663865     0.12100
H365        H  0.92439916  0.19346627  0.85052672     0.11500
H366        H  0.89233409  0.24458843  0.84990867     0.11800
H367        H  0.98625118  0.15933024  0.86737928     0.14500
H368        H  0.07673873  0.18658250  0.85191575     0.13300
H369        H  0.95499775  0.31166309  0.87465159     0.11000
H370        H  0.88068902  0.29757508  0.83844369     0.13000
C371        C  0.85694198  0.48207332  0.76935863     0.19100
C372        C  0.85584298  0.51372711  0.76618420    -0.19000
C373        C  0.85556395  0.52680048  0.74333218    -0.11300
C374        C  0.85722270  0.50836609  0.72319804     0.21300
C375        C  0.85839339  0.47678183  0.72640032    -0.20600
C376        C  0.85792991  0.46372713  0.74916108    -0.11500
C377        C  0.86170543  0.52090169  0.69868318    -0.15600
C378        C  0.84463632  0.54748635  0.69082504    -0.29500
C379        C  0.85987513  0.46910182  0.79386263    -0.03800
C380        C  0.84602012  0.44090091  0.80008337    -0.40300
H381        H  0.85561334  0.52840871  0.78146761     0.12500
H382        H  0.85569177  0.55121549  0.74148264     0.12100
H383        H  0.86026114  0.46208793  0.71115869     0.11500
H384        H  0.85997341  0.43935773  0.75083730     0.11800
H385        H  0.87823226  0.50637763  0.68595819     0.14500
H386        H  0.82455244  0.56137481  0.70245791     0.13300
H387        H  0.87244434  0.48399255  0.80765153     0.11000
H388        H  0.82970519  0.42644699  0.78716564     0.13000
C389        C  0.11712150  0.98152507  0.72235998     0.19100
C390        C  0.09206204  0.00730651  0.72832895    -0.19000
C391        C  0.09955334  0.02252968  0.74974920    -0.11300
C392        C  0.13249969  0.01230727  0.76577869     0.21300
C393        C  0.15802291  0.98686561  0.75967122    -0.20600
C394        C  0.15070700  0.97173907  0.73825281    -0.11500
C395        C  0.13840821  0.02514096  0.79000631    -0.15600
C396        C  0.12479596  0.05271986  0.79739682    -0.29500
C397        C  0.10752491  0.96634465  0.69921221    -0.03800
C398        C  0.12673947  0.94055752  0.69141792    -0.40300
H399        H  0.06606054  0.01554192  0.71646444     0.12500
H400        H  0.07856508  0.04161294  0.75398827     0.12100
H401        H  0.18352995  0.97835985  0.77172764     0.11500
H402        H  0.17143298  0.95242313  0.73445660     0.11800
H403        H  0.15467659  0.01026122  0.80287002     0.14500
H404        H  0.11090425  0.06911373  0.78495062     0.13300
H405        H  0.08380555  0.97777428  0.68752172     0.11000
H406        H  0.15092106  0.92843763  0.70225864     0.13000
C407        C  0.95748495  0.71334801  0.63927998     0.19100
C408        C  0.00426037  0.71788720  0.64050672    -0.19000
C409        C  0.02276189  0.74714028  0.64053017    -0.11300
C410        C  0.99478900  0.77256355  0.63891858     0.21300
C411        C  0.94796637  0.76808844  0.63885436    -0.20600
C412        C  0.92940554  0.73880712  0.63927926    -0.11500
C413        C  0.01328514  0.80322058  0.63332202    -0.15600
C414        C  0.05363833  0.81359447  0.64074296    -0.29500
C415        C  0.94013723  0.68240365  0.63406652    -0.03800
C416        C  0.89763332  0.67244082  0.63774909    -0.40300
H417        H  0.02670394  0.69869368  0.64026840     0.12500
H418        H  0.05895103  0.74973009  0.64008896     0.12100
H419        H  0.92570772  0.78731423  0.63737264     0.11500
H420        H  0.89331468  0.73625606  0.63789534     0.11800
H421        H  0.99310034  0.81763792  0.62178066     0.14500
H422        H  0.07298236  0.80086640  0.65377528     0.13300
H423        H  0.96370153  0.66717028  0.62567981     0.11000
H424        H  0.87388446  0.68581963  0.64769190     0.13000
C425        C  0.64693728  0.46763972  0.87844453     0.19100
C426        C  0.60830738  0.46003561  0.86549263    -0.19000
C427        C  0.57003046  0.47815394  0.86654243    -0.11300
C428        C  0.56959388  0.50418435  0.88077776     0.21300
C429        C  0.60769521  0.51105197  0.89443546    -0.20600
C430        C  0.64607241  0.49309299  0.89321335    -0.11500
C431        C  0.52924096  0.52359306  0.88290061    -0.15600
C432        C  0.49715898  0.52528635  0.86608866    -0.29500
C433        C  0.68759656  0.44862683  0.87638668    -0.03800
C434        C  0.72911093  0.46066815  0.87728085    -0.40300
H435        H  0.60794874  0.44024590  0.85432335     0.12500
H436        H  0.54069796  0.47128110  0.85653901     0.12100
H437        H  0.60785217  0.53048086  0.90598488     0.11500
H438        H  0.67484286  0.49896915  0.90406541     0.11800
H439        H  0.52541632  0.53643565  0.89911160     0.14500
H440        H  0.50068413  0.51305112  0.84961714     0.13300
H441        H  0.68332395  0.42474872  0.87250220     0.11000
H442        H  0.73331283  0.48495250  0.87920391     0.13000
C443        C  0.07489031  0.46317110  0.86429283     0.19100
C444        C  0.08657358  0.49077191  0.85332189    -0.19000
C445        C  0.12990685  0.50269919  0.85553388    -0.11300
C446        C  0.16256078  0.48754781  0.86929791     0.21300
C447        C  0.15137077  0.45934402  0.87952471    -0.20600
C448        C  0.10794021  0.44727884  0.87717039    -0.11500
C449        C  0.20863915  0.50018182  0.87285643    -0.15600
C450        C  0.21847616  0.52975565  0.86991598    -0.29500
C451        C  0.02692297  0.45372216  0.86409183    -0.03800
C452        C  0.01185655  0.42538215  0.86859705    -0.40300
H453        H  0.06181138  0.50341915  0.84322719     0.12500
H454        H  0.13738234  0.52374577  0.84634248     0.12100
H455        H  0.17597618  0.44698494  0.88993202     0.11500
H456        H  0.10001051  0.42621565  0.88626283     0.11800
H457        H  0.23537247  0.48462481  0.87770405     0.14500
H458        H  0.19229579  0.54575456  0.86535075     0.13300
H459        H  0.00255361  0.47157058  0.86098052     0.11000
H460        H  0.03513627  0.40672147  0.87052869     0.13000
C461        C  0.89101323  0.02306611  0.87530406     0.19100
C462        C  0.85856810  0.02487832  0.89336455    -0.19000
C463        C  0.81743365  0.00942191  0.89155764    -0.11300
C464        C  0.80779309  0.99181083  0.87149187     0.21300
C465        C  0.83959637  0.99073850  0.85316386    -0.20600
C466        C  0.88047424  0.00629450  0.85488110    -0.11500
C467        C  0.76656522  0.97277315  0.86935622    -0.15600
C468        C  0.72851354  0.97664359  0.88185732    -0.29500
C469        C  0.93560035  0.03809542  0.87892630    -0.03800
C470        C  0.97210666  0.03311057  0.86537680    -0.40300
H471        H  0.86553986  0.03767553  0.90927094     0.12500
H472        H  0.79417500  0.01053913  0.90624521     0.12100
H473        H  0.83294677  0.97751781  0.83743140     0.11500
H474        H  0.90342825  0.00476608  0.84013321     0.11800
H475        H  0.76738160  0.95488681  0.85626170     0.14500
H476        H  0.72541128  0.99532288  0.89406917     0.13300
H477        H  0.93924542  0.05247832  0.89435707     0.11000
H478        H  0.97029667  0.01811785  0.85033027     0.13000
C479        C  0.31086225  0.99303220  0.87198449     0.19100
C480        C  0.31765344  0.96403426  0.86280693    -0.19000
C481        C  0.36101379  0.95410196  0.85751860    -0.11300
C482        C  0.39840469  0.97301524  0.86156977     0.21300
C483        C  0.39159110  0.00189132  0.87090232    -0.20600
C484        C  0.34839736  0.01173362  0.87628558    -0.11500
C485        C  0.44517598  0.96302663  0.85758085    -0.15600
C486        C  0.45806021  0.93435291  0.86147516    -0.29500
C487        C  0.26433152  0.00371350  0.87600620    -0.03800
C488        C  0.25338553  0.03284999  0.87257746    -0.40300
H489        H  0.28925404  0.94928516  0.85925979     0.12500
H490        H  0.36512041  0.93182587  0.85007151     0.12100
H491        H  0.41993354  0.01666882  0.87453732     0.11500
H492        H  0.34457279  0.03389228  0.88398412     0.11800
H493        H  0.47088981  0.98049435  0.85558784     0.14500
H494        H  0.43326223  0.91716200  0.86616165     0.13300
H495        H  0.23792049  0.98704520  0.87918688     0.11000
H496        H  0.27904305  0.04904306  0.86705006     0.13000
C497        C  0.48318148  0.70792361  0.85756734     0.19100
C498        C  0.52882753  0.71369268  0.86265494    -0.19000
C499        C  0.54648538  0.74336133  0.86221053    -0.11300
C500        C  0.51873566  0.76821299  0.85680714     0.21300
C501        C  0.47338786  0.76238707  0.85132601    -0.20600
C502        C  0.45582569  0.73282190  0.85164831    -0.11500
C503        C  0.53375318  0.80056586  0.85913545    -0.15600
C504        C  0.57685429  0.81064358  0.85981141    -0.29500
C505        C  0.46487481  0.67621938  0.86054848    -0.03800
C506        C  0.42381453  0.66685700  0.85304715    -0.40300
H507        H  0.55078781  0.69518242  0.86754727     0.12500
H508        H  0.58132580  0.74674971  0.86705431     0.12100
H509        H  0.45094668  0.78098483  0.84736555     0.11500
H510        H  0.42037020  0.72997026  0.84813201     0.11800
H511        H  0.50719685  0.81710480  0.86108450     0.14500
H512        H  0.60431401  0.79510406  0.85693983     0.13300
H513        H  0.48564703  0.66014535  0.87026326     0.11000
H514        H  0.40254078  0.68219400  0.84302431     0.13000
C515        C  0.66021675  0.50277531  0.60294749     0.19100
C516        C  0.61753466  0.51534486  0.60571918    -0.19000
C517        C  0.57953841  0.49674332  0.60711559    -0.11300
C518        C  0.58343607  0.46505417  0.60566644     0.21300
C519        C  0.62577910  0.45256769  0.60145106    -0.20600
C520        C  0.66394451  0.47120402  0.60022335    -0.11500
C521        C  0.54325023  0.44505195  0.60714010    -0.15600
C522        C  0.50749759  0.45241512  0.62031626    -0.29500
C523        C  0.70001745  0.52318119  0.60348658    -0.03800
C524        C  0.73992609  0.51391144  0.61182686    -0.40300
H525        H  0.61366629  0.53960214  0.60733067     0.12500
H526        H  0.54708725  0.50731518  0.60908822     0.12100
H527        H  0.62939582  0.42834393  0.59948558     0.11500
H528        H  0.69617964  0.46083532  0.59706491     0.11800
H529        H  0.54189849  0.42513230  0.59600427     0.14500
H530        H  0.50891154  0.47234342  0.63140624     0.13300
H531        H  0.69547107  0.54691032  0.59881061     0.11000
H532        H  0.74403561  0.49065773  0.61785810     0.13000
C533        C  0.16578060  0.49119231  0.62484038     0.19100
C534        C  0.15933647  0.52253350  0.62666320    -0.19000
C535        C  0.11615666  0.53434310  0.62936169    -0.11300
C536        C  0.07866272  0.51480990  0.63052002     0.21300
C537        C  0.08551329  0.48343610  0.62961095    -0.20600
C538        C  0.12846193  0.47171277  0.62681090    -0.11500
C539        C  0.03157986  0.52550722  0.63134148    -0.15600
C540        C  0.01813363  0.55418995  0.62729348    -0.29500
C541        C  0.21193603  0.47939445  0.62220412    -0.03800
C542        C  0.22100182  0.45222258  0.61279953    -0.40300
H543        H  0.18776476  0.53794266  0.62570539     0.12500
H544        H  0.11258013  0.55860875  0.63041353     0.12100
H545        H  0.05733949  0.46781800  0.63069456     0.11500
H546        H  0.13219132  0.44738374  0.62653492     0.11800
H547        H  0.00598095  0.50794796  0.63313205     0.14500
H548        H  0.04202773  0.57267993  0.62548748     0.13300
H549        H  0.23942631  0.49359432  0.62839763     0.11000
H550        H  0.19434137  0.43828053  0.60547315     0.13000
C551        C  0.33549781  0.50425465  0.76400039     0.19100
C552        C  0.31705062  0.47523707  0.75993030    -0.19000
C553        C  0.32141642  0.46103874  0.73780552    -0.11300
C554        C  0.34473041  0.47550734  0.71911516     0.21300
C555        C  0.36246237  0.50470042  0.72311162    -0.20600
C556        C  0.35797964  0.51889619  0.74514849    -0.11500
C557        C  0.35260066  0.46151020  0.69531170    -0.15600
C558        C  0.33564008  0.43493488  0.68708736    -0.29500
C559        C  0.33318760  0.51712288  0.78854343    -0.03800
C560        C  0.34311261  0.54605863  0.79492091    -0.40300
H561        H  0.29964105  0.46323221  0.77410277     0.12500
H562        H  0.30721766  0.43864990  0.73565627     0.12100
H563        H  0.38059058  0.51656608  0.70912350     0.11500
H564        H  0.37329773  0.54092465  0.74743503     0.11800
H565        H  0.37331506  0.47496904  0.68325501     0.14500
H566        H  0.31332141  0.42111143  0.69794622     0.13300
H567        H  0.32286884  0.50126235  0.80243539     0.11000
H568        H  0.35166769  0.56306679  0.78161299     0.13000
C569        C  0.79721871  0.99141102  0.62294673     0.19100
C570        C  0.80630372  0.96044119  0.62562011    -0.19000
C571        C  0.85068435  0.95015105  0.62695284    -0.11300
C572        C  0.88693436  0.97084080  0.62590116     0.21300
C573        C  0.87753707  0.00187779  0.62407296    -0.20600
C574        C  0.83336624  0.01208119  0.62267638    -0.11500
C575        C  0.93498144  0.96161950  0.62569497    -0.15600
C576        C  0.94977588  0.93286697  0.62510066    -0.29500
C577        C  0.74990862  0.00184442  0.62164095    -0.03800
C578        C  0.73841186  0.02770212  0.61041419    -0.40300
H579        H  0.77898726  0.94413366  0.62634869     0.12500
H580        H  0.85600287  0.92607063  0.62865770     0.12100
H581        H  0.90458009  0.01841249  0.62351085     0.11500
H582        H  0.82776436  0.03624131  0.62172846     0.11800
H583        H  0.95966504  0.97982970  0.62449242     0.14500
H584        H  0.92660560  0.91388376  0.62595282     0.13300
H585        H  0.72423528  0.98830019  0.63053744     0.11000
H586        H  0.76363013  0.04072270  0.60074816     0.13000
C587        C  0.29585833  0.99436343  0.61983275     0.19100
C588        C  0.31042622  0.01544989  0.63675469    -0.19000
C589        C  0.35528715  0.02537199  0.63720747    -0.11300
C590        C  0.38621098  0.01431722  0.62064021     0.21300
C591        C  0.37126215  0.99406159  0.60330121    -0.20600
C592        C  0.32656778  0.98447773  0.60266533    -0.11500
C593        C  0.43464966  0.02218635  0.62113158    -0.15600
C594        C  0.45145906  0.04904336  0.62806831    -0.29500
C595        C  0.24901975  0.98242163  0.62086517    -0.03800
C596        C  0.23800025  0.95471216  0.61292538    -0.40300
H597        H  0.28736968  0.02356926  0.65007355     0.12500
H598        H  0.36595812  0.04082908  0.65091719     0.12100
H599        H  0.39435868  0.98558251  0.59013082     0.11500
H600        H  0.31638331  0.96926636  0.58870800     0.11800
H601        H  0.45723388  0.00596369  0.61314378     0.14500
H602        H  0.42929138  0.06674574  0.63415025     0.13300
H603        H  0.22388325  0.99565196  0.63001071     0.11000
H604        H  0.26357993  0.94034681  0.60538299     0.13000
C605        C  0.63710654  0.97859858  0.76763397     0.19100
C606        C  0.61510631  0.96355796  0.74906950    -0.19000
C607        C  0.60939618  0.97788433  0.72685880    -0.11300
C608        C  0.62568569  0.00749100  0.72244192     0.21300
C609        C  0.64831536  0.02237716  0.74091973    -0.20600
C610        C  0.65368540  0.00812923  0.76320748    -0.11500
C611        C  0.61658775  0.02179704  0.69860847    -0.15600
C612        C  0.63557993  0.04748979  0.68946993    -0.29500
C613        C  0.63931440  0.96602201  0.79244873    -0.03800
C614        C  0.63398532  0.93657195  0.79938583    -0.40300
H615        H  0.60089185  0.94119345  0.75184306     0.12500
H616        H  0.59153509  0.96580919  0.71307467     0.12100
H617        H  0.66089015  0.04522802  0.73851927     0.11500
H618        H  0.67027341  0.02051714  0.77725663     0.11800
H619        H  0.59347847  0.00930434  0.68734189     0.14500
H620        H  0.66052166  0.06000333  0.69949957     0.13300
H621        H  0.64505697  0.98274178  0.80616097     0.11000
H622        H  0.63090215  0.91876730  0.78636615     0.13000
C623        C  0.47438201  0.27562740  0.62839483     0.19100
C624        C  0.52101222  0.27057563  0.62790544    -0.19000
C625        C  0.53827770  0.24107991  0.62914212    -0.11300
C626        C  0.50902685  0.21599092  0.63040175     0.21300
C627        C  0.46256983  0.22111420  0.63157582    -0.20600
C628        C  0.44538715  0.25052727  0.63080019    -0.11500
C629        C  0.52483312  0.18452005  0.62667493    -0.15600
C630        C  0.56536707  0.17360835  0.63318532    -0.29500
C631        C  0.45682540  0.30659616  0.62328815    -0.03800
C632        C  0.41612626  0.31645529  0.63030745    -0.40300
H633        H  0.54410274  0.28947883  0.62574790     0.12500
H634        H  0.57416978  0.23790149  0.62762073     0.12100
H635        H  0.43928553  0.20215063  0.63217252     0.11500
H636        H  0.40932518  0.25335842  0.63061662     0.11800
H637        H  0.50163969  0.16953310  0.61747708     0.14500
H638        H  0.58810641  0.18707224  0.64393115     0.13300
H639        H  0.47799293  0.32165572  0.61267404     0.11000
H640        H  0.39579027  0.30270828  0.64231860     0.13000
C641        C  0.94767337  0.51699285  0.50993809     0.19100
C642        C  0.98585189  0.52792625  0.49798425    -0.19000
C643        C  0.00050851  0.51426967  0.47725951    -0.11300
C644        C  0.97678687  0.48945850  0.46795702     0.21300
C645        C  0.93788051  0.47905329  0.47961286    -0.20600
C646        C  0.92328349  0.49269809  0.50037473    -0.11500
C647        C  0.99157808  0.47305448  0.44666014    -0.15600
C648        C  0.02665351  0.48106534  0.43283747    -0.29500
C649        C  0.93500526  0.53167269  0.53229777    -0.03800
C650        C  0.90815167  0.51908989  0.54893927    -0.40300
H651        H  0.00500900  0.54678171  0.50497662     0.12500
H652        H  0.03068560  0.52309104  0.46904860     0.12100
H653        H  0.91877491  0.46012559  0.47270479     0.11500
H654        H  0.89292203  0.48419610  0.50866282     0.11800
H655        H  0.97232455  0.45288960  0.44220507     0.14500
H656        H  0.04654644  0.50119138  0.43611742     0.13300
H657        H  0.95065565  0.55350612  0.53573546     0.11000
H658        H  0.89238449  0.49715791  0.54648937     0.13000
C659        C  0.20123375  0.35939865  0.46993347     0.19100
C660        C  0.24742027  0.35327167  0.47209576    -0.19000
C661        C  0.26864346  0.35187836  0.49449023    -0.11300
C662        C  0.24423567  0.35671768  0.51562147     0.21300
C663        C  0.19769707  0.36123218  0.51350261    -0.20600
C664        C  0.17647027  0.36240102  0.49118475    -0.11500
C665        C  0.26555087  0.35878790  0.53997744    -0.15600
C666        C  0.31026663  0.36098063  0.54385920    -0.29500
C667        C  0.18074639  0.36331963  0.44542111    -0.03800
C668        C  0.13948775  0.37508949  0.44161346    -0.40300
H669        H  0.26754515  0.35020456  0.45630218     0.12500
H670        H  0.30423877  0.34736278  0.49489910     0.12100
H671        H  0.17756242  0.36455264  0.52926030     0.11500
H672        H  0.14062847  0.36588764  0.49099753     0.11800
H673        H  0.24336997  0.36174769  0.55507690     0.14500
H674        H  0.33299877  0.36006435  0.52889280     0.13300
H675        H  0.20125223  0.35809027  0.43007781     0.11000
H676        H  0.11949902  0.38151124  0.45675360     0.13000
C677        C  0.93385627  0.22328252  0.35377241     0.19100
C678        C  0.91356651  0.24799917  0.36475592    -0.19000
C679        C  0.93647522  0.27551660  0.36719691    -0.11300
C680        C  0.98034093  0.27955595  0.35844330     0.21300
C681        C  0.00025697  0.25540111  0.34631250    -0.20600
C682        C  0.97725443  0.22752043  0.34400397    -0.11500
C683        C  0.00412754  0.30848812  0.36438929    -0.15600
C684        C  0.04231717  0.31988659  0.35455373    -0.29500
C685        C  0.90925664  0.19345073  0.35439033    -0.03800
C686        C  0.92973712  0.16641593  0.35309723    -0.40300
H687        H  0.88028436  0.24569808  0.37236851     0.12500
H688        H  0.92003475  0.29362143  0.37656197     0.12100
H689        H  0.03399518  0.25756752  0.33934052     0.11500
H690        H  0.99383631  0.20935168  0.33487029     0.11800
H691        H  0.98809939  0.32175901  0.37808747     0.14500
H692        H  0.05847618  0.30855226  0.33990448     0.13300
H693        H  0.87395584  0.19365764  0.35932048     0.11000
H694        H  0.96563523  0.16572979  0.34987479     0.13000
C695        C  0.99690022  0.98422405  0.52075743     0.19100
C696        C  0.95814437  0.97312827  0.50949136    -0.19000
C697        C  0.93705132  0.98992559  0.49170943    -0.11300
C698        C  0.95452997  0.01820278  0.48469997     0.21300
C699        C  0.99208388  0.03001700  0.49655804    -0.20600
C700        C  0.01337911  0.01313306  0.51440374    -0.11500
C701        C  0.93550975  0.03507148  0.46433346    -0.15600
C702        C  0.91938478  0.02067729  0.44522075    -0.29500
C703        C  0.01753432  0.96483158  0.53932155    -0.03800
C704        C  0.05486271  0.97137869  0.55187446    -0.40300
H705        H  0.94418247  0.95119608  0.51435079     0.12500
H706        H  0.90723070  0.98067025  0.48339979     0.12100
H707        H  0.00576506  0.05194847  0.49149630     0.11500
H708        H  0.04259503  0.02282384  0.52288692     0.11800
H709        H  0.93945401  0.05955420  0.46388265     0.14500
H710        H  0.91901326  0.99611055  0.44468875     0.13300
H711        H  0.99961336  0.94386505  0.54336871     0.11000
H712        H  0.07413933  0.99191120  0.54867776     0.13000
C713        C  0.75475701  0.12220056  0.46910366     0.19100
C714        C  0.70841550  0.11800460  0.47270622    -0.19000
C715        C  0.68965829  0.11871225  0.49553826    -0.11300
C716        C  0.71675999  0.12367859  0.51574322     0.21300
C717        C  0.76318304  0.12802662  0.51215674    -0.20600
C718        C  0.78198790  0.12741800  0.48920594    -0.11500
C719        C  0.69845499  0.12174053  0.54069655    -0.15600
C720        C  0.65424395  0.12349605  0.54590354    -0.29500
C721        C  0.77308988  0.11827516  0.44445385    -0.03800
C722        C  0.81479927  0.12643350  0.43716614    -0.40300
H723        H  0.68653087  0.11345460  0.45774577     0.12500
H724        H  0.65410148  0.11412152  0.49713112     0.12100
H725        H  0.78520310  0.13137268  0.52725516     0.11500
H726        H  0.81797590  0.13000494  0.48749557     0.11800
H727        H  0.72188769  0.11684286  0.55504218     0.14500
H728        H  0.63039133  0.12827351  0.53181038     0.13300
H729        H  0.75117362  0.10712410  0.43175447     0.11000
H730        H  0.83735867  0.13799119  0.44924138     0.13000
C731        C  0.22385365  0.62507759  0.95550568     0.19100
C732        C  0.17757681  0.61873996  0.95588931    -0.19000
C733        C  0.15375503  0.61742261  0.97728106    -0.11300
C734        C  0.17521195  0.62247093  0.99915894     0.21300
C735        C  0.22135079  0.62989974  0.99892844    -0.20600
C736        C  0.24542828  0.63116692  0.97734867    -0.11500
C737        C  0.14841569  0.61706417  0.02139045    -0.15600
C738        C  0.16017634  0.62473920  0.04382828    -0.29500
C739        C  0.24804092  0.62209311  0.93224144    -0.03800
C740        C  0.29159729  0.62924951  0.92820576    -0.40300
H741        H  0.15981827  0.61386302  0.93953754     0.12500
H742        H  0.11834961  0.61161368  0.97673257     0.12100
H743        H  0.23937786  0.63356219  0.01535477     0.11500
H744        H  0.28109674  0.63575859  0.97809074     0.11800
H745        H  0.11647466  0.60542362  0.01895915     0.14500
H746        H  0.19096930  0.63727365  0.04711689     0.13300
H747        H  0.22926805  0.61162204  0.91789278     0.11000
H748        H  0.31152905  0.63981957  0.94198386     0.13000
C749        C  0.94829981  0.46068299  0.98129087     0.19100
C750        C  0.99336080  0.45648599  0.98775268    -0.19000
C751        C  0.01188813  0.47237486  0.00665520    -0.11300
C752        C  0.98512155  0.49230385  0.01963917     0.21300
C753        C  0.93949265  0.49542728  0.01373596    -0.20600
C754        C  0.92113017  0.47975618  0.99469939    -0.11500
C755        C  0.00341291  0.51178567  0.03843495    -0.15600
C756        C  0.04417025  0.50899006  0.04865720    -0.29500
C757        C  0.93136383  0.44522734  0.96013219    -0.03800
C758        C  0.90041502  0.45712904  0.94532292    -0.40300
H759        H  0.01472017  0.44169858  0.97758216     0.12500
H760        H  0.04723702  0.46960650  0.01041800     0.12100
H761        H  0.91811416  0.51049478  0.02363457     0.11500
H762        H  0.88593208  0.48269260  0.99046121     0.11800
H763        H  0.98130344  0.52968881  0.04433532     0.14500
H764        H  0.06658398  0.49059067  0.04445867     0.13300
H765        H  0.94856611  0.42454323  0.95534414     0.11000
H766        H  0.88400528  0.47837497  0.94919551     0.13000
C767        C  0.11207035  0.48528528  0.26392641     0.19100
C768        C  0.11290128  0.46690998  0.24374073    -0.19000
C769        C  0.11327496  0.47998311  0.22085220    -0.11300
C770        C  0.11325335  0.51167591  0.21747096     0.21300
C771        C  0.11443984  0.53002727  0.23769227    -0.20600
C772        C  0.11358179  0.51695093  0.26057227    -0.11500
C773        C  0.10780366  0.52419968  0.19275614    -0.15600
C774        C  0.11544611  0.55322400  0.18552833    -0.29500
C775        C  0.10486391  0.47277242  0.28848684    -0.03800
C776        C  0.11458009  0.44431610  0.29618904    -0.40300
H777        H  0.11108690  0.44251427  0.24550854     0.12500
H778        H  0.11222977  0.46518222  0.20565216     0.12100
H779        H  0.11394836  0.55443456  0.23599462     0.11500
H780        H  0.11280439  0.53173338  0.27578046     0.11800
H781        H  0.09701096  0.50806471  0.17942989     0.14500
H782        H  0.12962734  0.56967125  0.19762180     0.13300
H783        H  0.09114467  0.48845755  0.30128478     0.11000
H784        H  0.13187575  0.42866884  0.28471206     0.13000
C785        C  0.84497385  0.00492519  0.26975793     0.19100
C786        C  0.84174899  0.02315231  0.24921151    -0.19000
C787        C  0.84268306  0.01008184  0.22663561    -0.11300
C788        C  0.84680769  0.97853618  0.22384832     0.21300
C789        C  0.84973659  0.96027388  0.24438477    -0.20600
C790        C  0.84876925  0.97335303  0.26698314    -0.11500
C791        C  0.84788049  0.96637297  0.19914435    -0.15600
C792        C  0.85132128  0.93694004  0.19257224    -0.29500
C793        C  0.84459200  0.01727614  0.29441713    -0.03800
C794        C  0.84432729  0.04691064  0.30063223    -0.40300
H795        H  0.83842602  0.04743586  0.25033179     0.12500
H796        H  0.84019253  0.02483970  0.21118358     0.12100
H797        H  0.85286918  0.93597866  0.24321058     0.11500
H798        H  0.85121309  0.95861946  0.28244955     0.11800
H799        H  0.84566350  0.98346790  0.18515450     0.14500
H800        H  0.85395087  0.91888658  0.20569620     0.13300
H801        H  0.84541612  0.00035751  0.30858608     0.11000
H802        H  0.84403934  0.06478557  0.28728317     0.13000
C803        C  0.00859807  0.71776359  0.14309473     0.19100
C804        C  0.02674880  0.74470629  0.15216284    -0.19000
C805        C  0.00138376  0.77147777  0.15213303    -0.11300
C806        C  0.95698373  0.77170378  0.14328224     0.21300
C807        C  0.93794033  0.74421675  0.13590679    -0.20600
C808        C  0.96333583  0.71765710  0.13571242    -0.11500
C809        C  0.92994371  0.79999767  0.14042422    -0.15600
C810        C  0.94848763  0.82759581  0.13679697    -0.29500
C811        C  0.03750633  0.69038426  0.14030029    -0.03800
C812        C  0.03301344  0.67284372  0.12103388    -0.40300
H813        H  0.06119456  0.74534148  0.15839065     0.12500
H814        H  0.01682511  0.79193529  0.15877717     0.12100
H815        H  0.90366333  0.74348017  0.12940850     0.11500
H816        H  0.94763215  0.69708390  0.12940673     0.11800
H817        H  0.89377972  0.79752016  0.13842745     0.14500
H818        H  0.98477041  0.83013333  0.13720118     0.13300
H819        H  0.06430468  0.68597326  0.15297425     0.11000
H820        H  0.00833611  0.67933720  0.10768815     0.13000
C821        C  0.96465756  0.97840861  0.01130561     0.19100
C822        C  0.99887681  0.96321712  0.99921680    -0.19000
C823        C  0.02679286  0.97863233  0.98311461    -0.11300
C824        C  0.02071634  0.00971087  0.97849474     0.21300
C825        C  0.98628438  0.02485261  0.99044928    -0.20600
C826        C  0.95837631  0.00943795  0.00655659    -0.11500
C827        C  0.04821425  0.02713419  0.96092203    -0.15600
C828        C  0.07185297  0.01441634  0.94331152    -0.29500
C829        C  0.93799514  0.96117694  0.02935513    -0.03800
C830        C  0.91504278  0.97410479  0.04714433    -0.40300
H831        H  0.00467694  0.93936379  0.00260256     0.12500
H832        H  0.05331004  0.96610691  0.97469009     0.12100
H833        H  0.98053973  0.04871659  0.98708971     0.11500
H834        H  0.93189909  0.02196946  0.01500934     0.11800
H835        H  0.04467179  0.05162004  0.96084271     0.14500
H836        H  0.07345935  0.99001629  0.94177045     0.13300
H837        H  0.94182696  0.93671129  0.02963831     0.11000
H838        H  0.91278289  0.99852226  0.04828074     0.13000
C839        C  0.73351003  0.87213508  0.97305575     0.19100
C840        C  0.77947414  0.86869144  0.97807644    -0.19000
C841        C  0.79515508  0.86714202  0.00165481    -0.11300
C842        C  0.76518436  0.86945993  0.02094295     0.21300
C843        C  0.71926107  0.87313670  0.01585162    -0.20600
C844        C  0.70356388  0.87429938  0.99231587    -0.11500
C845        C  0.78067639  0.87110922  0.04633168    -0.15600
C846        C  0.82129158  0.86180496  0.05422060    -0.29500
C847        C  0.71795076  0.87570968  0.94778897    -0.03800
C848        C  0.67678544  0.86675703  0.94048633    -0.40300
H849        H  0.80344985  0.86748435  0.96367140     0.12500
H850        H  0.83093748  0.86528345  0.00455761     0.12100
H851        H  0.69538605  0.87563006  0.03018964     0.11500
H852        H  0.66810477  0.87800659  0.98927994     0.11800
H853        H  0.75827244  0.88186099  0.05886222     0.14500
H854        H  0.84409527  0.85075482  0.04213732     0.13300
H855        H  0.74067469  0.88634470  0.93506829     0.11000
H856        H  0.65503152  0.85496127  0.95305346     0.13000
C857        C  0.68956438  0.35815458  0.01383675     0.19100
C858        C  0.67464860  0.35865583  0.99010776    -0.19000
C859        C  0.70519539  0.35805094  0.97117031    -0.11300
C860        C  0.75176396  0.35713316  0.97549385     0.21300
C861        C  0.76665172  0.35586545  0.99922709    -0.20600
C862        C  0.73606531  0.35623216  0.01817608    -0.11500
C863        C  0.78574281  0.36083965  0.95607717    -0.15600
C864        C  0.77770687  0.35590554  0.93276439    -0.29500
C865        C  0.65611885  0.36324632  0.03318743    -0.03800
C866        C  0.66307897  0.35724123  0.05651877    -0.40300
H867        H  0.63912000  0.36050247  0.98616834     0.12500
H868        H  0.69214249  0.35981650  0.95327467     0.12100
H869        H  0.80229530  0.35551321  0.00315869     0.11500
H870        H  0.74922197  0.35652596  0.03609013     0.11800
H871        H  0.81877529  0.36909336  0.96127584     0.14500
H872        H  0.74571397  0.34652478  0.92711450     0.13300
H873        H  0.62454948  0.37359512  0.02791209     0.11000
H874        H  0.69338743  0.34577292  0.06227897     0.13000
C875        C  0.43444021  0.51661418  0.98238542     0.19100
C876        C  0.46845713  0.53093544  0.99562258    -0.19000
C877        C  0.49200369  0.51503699  0.01333992    -0.11300
C878        C  0.48162381  0.48449043  0.01813467     0.21300
C879        C  0.44659110  0.47062445  0.00547225    -0.20600
C880        C  0.42313190  0.48642648  0.98792515    -0.11500
C881        C  0.50390066  0.46622888  0.03693346    -0.15600
C882        C  0.54253542  0.47309476  0.04835634    -0.29500
C883        C  0.41283870  0.53337007  0.96239061    -0.03800
C884        C  0.39323667  0.51943059  0.94383343    -0.40300
H885        H  0.47741588  0.55432746  0.99193404     0.12500
H886        H  0.51783599  0.52676400  0.02323221     0.12100
H887        H  0.43721685  0.44729459  0.00916095     0.11500
H888        H  0.39608095  0.47480127  0.97891703     0.11800
H889        H  0.48643179  0.44538042  0.04180517     0.14500
H890        H  0.56148525  0.49349213  0.04410518     0.13300
H891        H  0.41772286  0.55777351  0.96157966     0.11000
H892        H  0.39096559  0.49495122  0.94330875     0.13000
C893        C  0.87673396  0.51594055  0.12057640     0.19100
C894        C  0.86735382  0.48493683  0.12337587    -0.19000
C895        C  0.82323537  0.47415964  0.12329753    -0.11300
C896        C  0.78710427  0.49415884  0.12010372     0.21300
C897        C  0.79616497  0.52529462  0.11800238    -0.20600
C898        C  0.84053778  0.53615506  0.11805142    -0.11500
C899        C  0.73983610  0.48307706  0.11956355    -0.15600
C900        C  0.72896925  0.45506032  0.11229557    -0.29500
C901        C  0.92477940  0.52536645  0.11931305    -0.03800
C902        C  0.94000452  0.55412916  0.11804720    -0.40300
H903        H  0.89439609  0.46883195  0.12553718     0.12500
H904        H  0.81769705  0.45014123  0.12601478     0.12100
H905        H  0.76886896  0.54119027  0.11583992     0.11500
H906        H  0.84597270  0.56020118  0.11570061     0.11800
H907        H  0.71351130  0.49827342  0.12525581     0.14500
H908        H  0.75487051  0.44019535  0.10569163     0.13300
H909        H  0.94916762  0.50719628  0.11848482     0.11000
H910        H  0.91714953  0.57307937  0.11873253     0.13000
C911        C  0.28816758  0.49712295  0.12041425     0.19100
C912        C  0.29659565  0.46630326  0.12489257    -0.19000
C913        C  0.34073931  0.45534276  0.12566845    -0.11300
C914        C  0.37745904  0.47517527  0.12209732     0.21300
C915        C  0.36890442  0.50604918  0.11832605    -0.20600
C916        C  0.32506056  0.51693994  0.11760032    -0.11500
C917        C  0.42521081  0.46529130  0.12175893    -0.15600
C918        C  0.43922784  0.43636191  0.12104626    -0.29500
C919        C  0.24089954  0.50818756  0.11978120    -0.03800
C920        C  0.22920827  0.53471090  0.10949899    -0.40300
H921        H  0.26891385  0.45061246  0.12762959     0.12500
H922        H  0.34563143  0.43148204  0.12912894     0.12100
H923        H  0.39639401  0.52196638  0.11582661     0.11500
H924        H  0.32063256  0.54104437  0.11524181     0.11800
H925        H  0.45036991  0.48319227  0.12053020     0.14500
H926        H  0.41542666  0.41770842  0.12162220     0.13300
H927        H  0.21514301  0.49431057  0.12829580     0.11000
H928        H  0.25413363  0.54844796  0.10030605     0.13000
C929        C  0.67528225  0.99465082  0.11829019     0.19100
C930        C  0.66656609  0.02493737  0.11223545    -0.19000
C931        C  0.62393316  0.03715026  0.11565219    -0.11300
C932        C  0.58897901  0.01915964  0.12515703     0.21300
C933        C  0.59821344  0.98938672  0.13233543    -0.20600
C934        C  0.64083117  0.97719460  0.12899137    -0.11500
C935        C  0.54212932  0.03006670  0.12681851    -0.15600
C936        C  0.52552675  0.05082048  0.11162619    -0.29500
C937        C  0.72117603  0.98269223  0.11425062    -0.03800
C938        C  0.73102087  0.95308213  0.11502959    -0.40300
H939        H  0.69275861  0.03915513  0.10462295     0.12500
H940        H  0.61857003  0.06060990  0.11078658     0.12100
H941        H  0.57204730  0.97524562  0.14006772     0.11500
H942        H  0.64630146  0.95423271  0.13505847     0.11800
H943        H  0.51941865  0.01819304  0.13888673     0.14500
H944        H  0.54711343  0.06144723  0.09839745     0.13300
H945        H  0.74823596  0.99897635  0.11134655     0.11000
H946        H  0.70500409  0.93617987  0.11791835     0.13000
C947        C  0.17152444  0.00629696  0.12546694     0.19100
C948        C  0.14136074  0.00535132  0.14458906    -0.19000
C949        C  0.10094503  0.98920682  0.14285171    -0.11300
C950        C  0.09000027  0.97400063  0.12177574     0.21300
C951        C  0.12039566  0.97469803  0.10282453    -0.20600
C952        C  0.16045231  0.99092607  0.10448766    -0.11500
C953        C  0.04701510  0.95775313  0.11830982    -0.15600
C954        C  0.00897708  0.96440615  0.12987675    -0.29500
C955        C  0.21361381  0.02411712  0.12756728    -0.03800
C956        C  0.25020310  0.01799521  0.11462150    -0.40300
H957        H  0.14918636  0.01702375  0.16091459     0.12500
H958        H  0.07869162  0.98857657  0.15802272     0.12100
H959        H  0.11254032  0.96332696  0.08636303     0.11500
H960        H  0.18191587  0.99194685  0.08901626     0.11800
H961        H  0.04576513  0.94142168  0.10401948     0.14500
H962        H  0.00868207  0.98136439  0.14365230     0.13300
H963        H  0.21488461  0.04218647  0.14049475     0.11000
H964        H  0.25044888  0.99879422  0.10279129     0.13000
C965        C  0.47396562  0.28068028  0.13788431     0.19100
C966        C  0.42743245  0.27804683  0.13418883    -0.19000
C967        C  0.40582720  0.24992011  0.13614604    -0.11300
C968        C  0.43052447  0.22373116  0.14125414     0.21300
C969        C  0.47662371  0.22662836  0.14658386    -0.20600
C970        C  0.49817292  0.25484899  0.14488857    -0.11500
C971        C  0.40832551  0.19368234  0.13855067    -0.15600
C972        C  0.43052579  0.17016754  0.12937735    -0.29500
C973        C  0.49675667  0.30946343  0.13102108    -0.03800
C974        C  0.53684503  0.31879626  0.13947698    -0.40300
H975        H  0.40803423  0.29763062  0.12879135     0.12500
H976        H  0.37027182  0.24835147  0.13216373     0.12100
H977        H  0.49642040  0.20696105  0.15124135     0.11500
H978        H  0.53412462  0.25598639  0.14765645     0.11800
H979        H  0.37216878  0.19204211  0.14093894     0.14500
H980        H  0.46598598  0.17264069  0.12521457     0.13300
H981        H  0.47991224  0.32345252  0.11774234     0.11000
H982        H  0.55301252  0.30687107  0.15410015     0.13000
C983        C  0.20703180  0.13481768  0.97502931     0.19100
C984        C  0.18872500  0.13007244  0.99781171    -0.19000
C985        C  0.21579683  0.13091597  0.01825753    -0.11300
C986        C  0.26234183  0.13667353  0.01654366     0.21300
C987        C  0.28026083  0.14280954  0.99385421    -0.20600
C988        C  0.25316492  0.14199424  0.97340790    -0.11500
C989        C  0.29406533  0.13418202  0.03730011    -0.15600
C990        C  0.28185775  0.12789308  0.05999021    -0.29500
C991        C  0.17707205  0.13070045  0.95372870    -0.03800
C992        C  0.19168659  0.12847486  0.93107147    -0.40300
H993        H  0.15334156  0.12473942  0.99979973     0.12500
H994        H  0.19995085  0.12610959  0.03512982     0.12100
H995        H  0.31581502  0.14755741  0.99182247     0.11500
H996        H  0.26893877  0.14663413  0.95647925     0.11800
H997        H  0.32975250  0.13539486  0.03330273     0.14500
H998        H  0.24670116  0.12629902  0.06476568     0.13300
H999        H  0.14154717  0.12683096  0.95712503     0.11000
H1000       H  0.22714833  0.13080688  0.92712914     0.13000
C1001       C  0.44972285  0.01425136  0.00467454     0.19100
C1002       C  0.49199850  0.02303500  0.99601976    -0.19000
C1003       C  0.51631916  0.00379497  0.98144912    -0.11300
C1004       C  0.49829128  0.97557274  0.97483331     0.21300
C1005       C  0.45576246  0.96694222  0.98329055    -0.20600
C1006       C  0.43151635  0.98614969  0.99797537    -0.11500
C1007       C  0.52216001  0.95523982  0.95840877    -0.15600
C1008       C  0.54912798  0.96624781  0.94129563    -0.29500
C1009       C  0.42730393  0.03383910  0.02211868    -0.03800
C1010       C  0.40482978  0.02194798  0.04065737    -0.40300
H1011       H  0.50689732  0.04441234  0.00119359     0.12500
H1012       H  0.54947832  0.01091714  0.97574972     0.12100
H1013       H  0.44101792  0.94546119  0.97825903     0.11500
H1014       H  0.39860669  0.97897709  0.00406511     0.11800
H1015       H  0.51298035  0.93136757  0.95835583     0.14500
H1016       H  0.55453114  0.99050004  0.93953537     0.13300
H1017       H  0.43608416  0.05777312  0.02217042     0.11000
H1018       H  0.40040356  0.99759384  0.04222191     0.13000
C1019       C  0.74327046  0.61885498  0.51768071     0.19100
C1020       C  0.69667458  0.62023051  0.51346350    -0.19000
C1021       C  0.67915958  0.61886971  0.49021125    -0.11300
C1022       C  0.70793367  0.61574696  0.47050892     0.21300
C1023       C  0.75436292  0.61444592  0.47475056    -0.20600
C1024       C  0.77182928  0.61602649  0.49785363    -0.11500
C1025       C  0.69119468  0.61110339  0.44562137    -0.15600
C1026       C  0.65065061  0.62004295  0.43746137    -0.29500
C1027       C  0.76082830  0.61738629  0.54279841    -0.03800
C1028       C  0.80417852  0.62305057  0.54847713    -0.40300
H1029       H  0.67363906  0.62180227  0.52826708     0.12500
H1030       H  0.64308570  0.61909981  0.48788194     0.12100
H1031       H  0.77738150  0.61155930  0.46007465     0.11500
H1032       H  0.80771349  0.61365324  0.49997924     0.11800
H1033       H  0.71343693  0.59953196  0.43348020     0.14500
H1034       H  0.62845565  0.63244996  0.44905385     0.13300
H1035       H  0.73818474  0.60939041  0.55667285     0.11000
H1036       H  0.82698825  0.63111049  0.53477330     0.13000
C1037       C  0.42823458  0.48489756  0.50840022     0.19100
C1038       C  0.43920876  0.47068630  0.48713826    -0.19000
C1039       C  0.46344449  0.48620650  0.46972098    -0.11300
C1040       C  0.47809915  0.51613391  0.47354598     0.21300
C1041       C  0.46602318  0.53062200  0.49456953    -0.20600
C1042       C  0.44140769  0.51511983  0.51195452    -0.11500
C1043       C  0.50401205  0.53330835  0.45550968    -0.15600
C1044       C  0.52709772  0.51973992  0.43827880    -0.29500
C1045       C  0.40926725  0.46619783  0.52769313    -0.03800
C1046       C  0.38782317  0.47744858  0.54652511    -0.40300
H1047       H  0.42955743  0.44734717  0.48415390     0.12500
H1048       H  0.47014721  0.47459410  0.45331813     0.12100
H1049       H  0.47651446  0.55374091  0.49775765     0.11500
H1050       H  0.43457688  0.52643096  0.52849917     0.11800
H1051       H  0.50239075  0.55787705  0.45580487     0.14500
H1052       H  0.52980267  0.49530959  0.43768276     0.13300
H1053       H  0.41682744  0.44214007  0.52735182     0.11000
H1054       H  0.37650879  0.50073780  0.54683520     0.13000
C1055       C  0.85367914  0.44511426  0.36598090     0.19100
C1056       C  0.82897478  0.44926181  0.38691616    -0.19000
C1057       C  0.79282654  0.46936440  0.38729387    -0.11300
C1058       C  0.78055722  0.48550735  0.36660189     0.21300
C1059       C  0.80387776  0.48021112  0.34544956    -0.20600
C1060       C  0.83965456  0.45996585  0.34502504    -0.11500
C1061       C  0.74474323  0.50870201  0.36635590    -0.15600
C1062       C  0.70946019  0.50817241  0.38121315    -0.29500
C1063       C  0.89659410  0.42812721  0.36728349    -0.03800
C1064       C  0.93210251  0.43625139  0.35386668    -0.40300
H1065       H  0.83909471  0.43813303  0.40330018     0.12500
H1066       H  0.77593532  0.47312314  0.40399984     0.12100
H1067       H  0.79465439  0.49203769  0.32921118     0.11500
H1068       H  0.85688904  0.45658591  0.32836226     0.11800
H1069       H  0.74569403  0.52558156  0.35214615     0.14500
H1070       H  0.70581907  0.49011366  0.39431970     0.13300
H1071       H  0.90192231  0.41308106  0.38244154     0.11000
H1072       H  0.92856511  0.45387346  0.34042556     0.13000
C1073       C  0.29197124  0.48548259  0.37450149     0.19100
C1074       C  0.33078205  0.47552287  0.36298305    -0.19000
C1075       C  0.36844517  0.49444571  0.36084601    -0.11300
C1076       C  0.36816976  0.52375552  0.37040412     0.21300
C1077       C  0.32958165  0.53351979  0.38228144    -0.20600
C1078       C  0.29181139  0.51467477  0.38426932    -0.11500
C1079       C  0.40916616  0.54309583  0.37096190    -0.15600
C1080       C  0.44399633  0.54004523  0.35594870    -0.29500
C1081       C  0.25220566  0.46500631  0.37583553    -0.03800
C1082       C  0.21013871  0.47573220  0.37567841    -0.40300
H1083       H  0.33190387  0.45305441  0.35554088     0.12500
H1084       H  0.39812530  0.48556017  0.35242060     0.12100
H1085       H  0.32889870  0.55564992  0.39033759     0.11500
H1086       H  0.26295676  0.52281152  0.39390929     0.11800
H1087       H  0.41211707  0.55882461  0.38558808     0.14500
H1088       H  0.44131713  0.52513830  0.34083212     0.13300
H1089       H  0.25744902  0.44077257  0.37451679     0.11000
H1090       H  0.20469044  0.49998982  0.37483178     0.13000
C1091       C  0.60570950  0.48261180  0.22036875     0.19100
C1092       C  0.60069660  0.51398407  0.22356696    -0.19000
C1093       C  0.60708894  0.52708159  0.24594047    -0.11300
C1094       C  0.61841592  0.50893041  0.26571340     0.21300
C1095       C  0.62362999  0.47760891  0.26242781    -0.20600
C1096       C  0.61732384  0.46457297  0.24013522    -0.11500
C1097       C  0.62180149  0.52058378  0.29043163    -0.15600
C1098       C  0.61998916  0.54985512  0.29736420    -0.29500
C1099       C  0.59719635  0.46963747  0.19638027    -0.03800
C1100       C  0.61244209  0.44252853  0.18903951    -0.40300
H1101       H  0.59150943  0.52844011  0.20868108     0.12500
H1102       H  0.60211803  0.55117198  0.24767712     0.12100
H1103       H  0.63180925  0.46292433  0.27735154     0.11500
H1104       H  0.62046249  0.44029233  0.23870748     0.11800
H1105       H  0.62461499  0.50319517  0.30417339     0.14500
H1106       H  0.61894830  0.56829393  0.28449672     0.13300
H1107       H  0.57949288  0.48395636  0.18367355     0.11000
H1108       H  0.63293318  0.42856730  0.20067932     0.13000
C1109       C  0.67050764  0.99528735  0.37427627     0.19100
C1110       C  0.65469083  0.97510508  0.35701943    -0.19000
C1111       C  0.61404036  0.95945016  0.36029359    -0.11300
C1112       C  0.58823681  0.96421999  0.38076988     0.21300
C1113       C  0.60467556  0.98382819  0.39825125    -0.20600
C1114       C  0.64548165  0.99908261  0.39514806    -0.11500
C1115       C  0.54156579  0.95283685  0.38313756    -0.15600
C1116       C  0.52448414  0.92806102  0.37256407    -0.29500
C1117       C  0.71164665  0.01346729  0.36952510    -0.03800
C1118       C  0.73991300  0.02194741  0.38686310    -0.40300
H1119       H  0.67342242  0.97191418  0.34076829     0.12500
H1120       H  0.60183746  0.94496855  0.34628194     0.12100
H1121       H  0.58509754  0.98813798  0.41405499     0.11500
H1122       H  0.65627044  0.01488446  0.40859308     0.11800
H1123       H  0.51950055  0.96612929  0.39428014     0.14500
H1124       H  0.54578054  0.91251527  0.36302194     0.13300
H1125       H  0.72030209  0.01858601  0.35114142     0.11000
H1126       H  0.73452366  0.01410200  0.40500233     0.13000
C1127       C  0.08605346  0.01247595  0.37515878     0.19100
C1128       C  0.12611716  0.02244417  0.38564911    -0.19000
C1129       C  0.16354732  0.00367950  0.38655745    -0.11300
C1130       C  0.16162653  0.97443940  0.37696438     0.21300
C1131       C  0.12116713  0.96405410  0.36711386    -0.20600
C1132       C  0.08368079  0.98291905  0.36610757    -0.11500
C1133       C  0.20144822  0.95453301  0.37688502    -0.15600
C1134       C  0.24316772  0.96598024  0.37492158    -0.29500
C1135       C  0.04630912  0.03232814  0.37628246    -0.03800
C1136       C  0.01065054  0.02972114  0.36177752    -0.40300
H1137       H  0.12835449  0.04476828  0.39332516     0.12500
H1138       H  0.19371310  0.01200308  0.39512018     0.12100
H1139       H  0.11871893  0.94143793  0.35999097     0.11500
H1140       H  0.05273020  0.97395723  0.35882792     0.11800
H1141       H  0.19626302  0.93016487  0.37674134     0.14500
H1142       H  0.24820105  0.99026944  0.37322451     0.13300
H1143       H  0.04554076  0.04872468  0.39051390     0.11000
H1144       H  0.01121739  0.01417850  0.34700205     0.13000
C1145       C  0.36791757  0.00754508  0.22103013     0.19100
C1146       C  0.34835518  0.97905046  0.22580780    -0.19000
C1147       C  0.35207645  0.96526601  0.24825423    -0.11300
C1148       C  0.37578820  0.97965375  0.26665405     0.21300
C1149       C  0.39555674  0.00813672  0.26181088    -0.20600
C1150       C  0.39164996  0.02199638  0.23932372    -0.11500
C1151       C  0.38108647  0.96600799  0.29099789    -0.15600
C1152       C  0.35819873  0.94155900  0.29938428    -0.29500
C1153       C  0.36530187  0.01991188  0.19628540    -0.03800
C1154       C  0.37224225  0.04909325  0.18942370    -0.40300
H1155       H  0.33029531  0.96717795  0.21197101     0.12500
H1156       H  0.33689093  0.94320189  0.25078594     0.12100
H1157       H  0.41432489  0.01974752  0.27551339     0.11500
H1158       H  0.40811738  0.04357410  0.23622352     0.11800
H1159       H  0.40356579  0.97774262  0.30309245     0.14500
H1160       H  0.33389813  0.93000234  0.28831165     0.13300
H1161       H  0.35626885  0.00359101  0.18274459     0.11000
H1162       H  0.37875295  0.06653004  0.20242103     0.13000
C1163       C  0.49955735  0.71195768  0.34803547     0.19100
C1164       C  0.45594888  0.71878694  0.33998392    -0.19000
C1165       C  0.43781070  0.74771658  0.34307594    -0.11300
C1166       C  0.46294499  0.77031769  0.35454416     0.21300
C1167       C  0.50707309  0.76381973  0.36171759    -0.20600
C1168       C  0.52530523  0.73511033  0.35843686    -0.11500
C1169       C  0.44324140  0.79956351  0.36195713    -0.15600
C1170       C  0.40769826  0.81332158  0.35167565    -0.29500
C1171       C  0.51432463  0.67976754  0.34874766    -0.03800
C1172       C  0.55733601  0.67096905  0.35180407    -0.40300
H1173       H  0.43514772  0.70130369  0.33218429     0.12500
H1174       H  0.40341019  0.75172495  0.33771054     0.12100
H1175       H  0.52703297  0.78074676  0.37077025     0.11500
H1176       H  0.55850273  0.73077943  0.36547154     0.11800
H1177       H  0.45951809  0.81058611  0.37688219     0.14500
H1178       H  0.39240640  0.80423501  0.33573980     0.13300
H1179       H  0.48800384  0.66259488  0.34866922     0.11000
H1180       H  0.58454195  0.68737949  0.35064755     0.13000
C1181       C  0.19970207  0.86113897  0.51472506     0.19100
C1182       C  0.18459647  0.86219448  0.49102462    -0.19000
C1183       C  0.21497811  0.86179857  0.47197144    -0.11300
C1184       C  0.26159829  0.86063155  0.47612850     0.21300
C1185       C  0.27667151  0.85902868  0.49983224    -0.20600
C1186       C  0.24625431  0.85914268  0.51888660    -0.11500
C1187       C  0.29551014  0.86430485  0.45661006    -0.15600
C1188       C  0.28729973  0.85975943  0.43323884    -0.29500
C1189       C  0.16638443  0.86542078  0.53432751    -0.03800
C1190       C  0.17330493  0.85790978  0.55743030    -0.40300
H1191       H  0.14903776  0.86414189  0.48720937     0.12500
H1192       H  0.20176808  0.86382614  0.45412108     0.12100
H1193       H  0.31234244  0.85851249  0.50366936     0.11500
H1194       H  0.25955888  0.85907556  0.53677894     0.11800
H1195       H  0.32877039  0.87212109  0.46180849     0.14500
H1196       H  0.25506487  0.85078805  0.42756497     0.13300
H1197       H  0.13487249  0.87615217  0.52946077     0.11000
H1198       H  0.20367183  0.84613154  0.56268169     0.13000
C1199       C  0.49829234  0.00263833  0.51823574     0.19100
C1200       C  0.46962782  0.01758245  0.50221640    -0.19000
C1201       C  0.45182300  0.00252259  0.48271250    -0.11300
C1202       C  0.46193656  0.97192673  0.47904038     0.21300
C1203       C  0.49048993  0.95691605  0.49514523    -0.20600
C1204       C  0.50843481  0.97204395  0.51464411    -0.11500
C1205       C  0.44562987  0.95516815  0.45811073    -0.15600
C1206       C  0.41295935  0.96467658  0.44322241    -0.29500
C1207       C  0.51498901  0.01969703  0.53886353    -0.03800
C1208       C  0.55071770  0.01195881  0.55228684    -0.40300
H1209       H  0.46127824  0.04117098  0.50467717     0.12500
H1210       H  0.43096461  0.01522019  0.47049402     0.12100
H1211       H  0.49889427  0.93334381  0.49265548     0.11500
H1212       H  0.52948508  0.95955929  0.52693741     0.11800
H1213       H  0.46228053  0.93386510  0.45458822     0.14500
H1214       H  0.39457353  0.98533130  0.44629880     0.13300
H1215       H  0.49689476  0.04028549  0.54293288     0.11000
H1216       H  0.57065303  0.99218657  0.54838342     0.13000
loop_ 
_geom_bond_atom_site_label_1 
_geom_bond_atom_site_label_2 
_geom_bond_distance 
_geom_bond_site_symmetry_2 
_ccdc_geom_bond_type 
O1          Cr19   2.029       .  S
O1            C9   1.272       .  A
O2          Cr19   1.980       .  S
O2            C3   1.259       .  A
C3            O4   1.259       .  A
C3         C1134   1.468       .  S
O4          Cr20   1.988       .  S
O5          Cr20   1.985       .  S
O5            C6   1.259       .  A
C6            O7   1.260       .  A
C6         C1206   1.470       .  S
O7          Cr21   1.985       .  S
O8          Cr21   1.979       .  S
O8            C9   1.262       .  A
C9         C1188   1.491       .  S
O10         Cr19   1.995       .  S
O10          C18   1.260       .  A
O11         Cr19   2.024       .  S
O11          C12   1.271       .  A
C12          O13   1.262       .  A
C12        C1152   1.486       .  S
O13         Cr20   1.975       .  S
O14         Cr20   1.997       .  S
O14          C15   1.267       .  A
C15          O16   1.264       .  A
C15        C1116   1.476       .  S
O16         Cr21   1.993       .  S
O17         Cr21   1.991       .  S
O17          C18   1.261       .  A
C18        C1170   1.483       .  S
Cr19         O22   1.776       .  S
Cr20         O22   1.774       .  S
Cr21         O22   1.775       .  S
O23         Cr41   2.003       .  S
O23          C31   1.266       .  A
O24         Cr41   2.017       .  S
O24          C25   1.268       .  A
C25          O26   1.256       .  A
C25        C1062   1.474       .  S
O26         Cr42   1.972       .  S
O27         Cr42   1.986       .  S
O27          C28   1.259       .  A
C28          O29   1.258       .  A
C28        C1044   1.457       .  S
O29         Cr43   1.968       .  S
O30         Cr43   2.014       .  S
O30          C31   1.267       .  A
C31        C1026   1.493       .  S
O32         Cr41   2.026       .  S
O32          C40   1.269       .  A
O33         Cr41   2.011       .  S
O33          C34   1.269       .  A
C34          O35   1.264       .  A
C34        C1098   1.489       .  S
O35         Cr42   1.990       .  S
O36         Cr42   1.977       .  S
O36          C37   1.259       .  A
C37          O38   1.267       .  A
C37        C1080   1.476       .  S
O38         Cr43   2.008       .  S
O39         Cr43   1.972       .  S
O39          C40   1.258       .  A
C40        C1172   1.482       .  S
Cr41         O44   1.772       .  S
Cr42         O44   1.765       .  S
Cr43         O44   1.771       .  S
O45         Cr63   1.988       .  S
O45          C53   1.261       .  A
O46         Cr63   2.015       .  S
O46          C47   1.270       .  A
C47          O48   1.258       .  A
C47         C956   1.465       .  S
O48         Cr64   1.960       .  S
O49         Cr64   1.987       .  S
O49          C50   1.258       .  A
C50          O51   1.258       .  A
C50        C1010   1.464       .  S
O51         Cr65   1.979       .  S
O52         Cr65   2.010       .  S
O52          C53   1.266       .  A
C53         C990   1.489       .  S
O54         Cr63   2.022       .  S
O54          C62   1.268       .  A
O55         Cr63   2.008       .  S
O55          C56   1.265       .  A
C56          O57   1.261       .  A
C56        C1154   1.489       .  S
O57         Cr64   1.991       .  S
O58         Cr64   1.976       .  S
O58          C59   1.264       .  A
C59          O60   1.266       .  A
C59         C936   1.469       .  S
O60         Cr65   2.003       .  S
O61         Cr65   1.963       .  S
O61          C62   1.255       .  A
C62         C972   1.476       .  S
Cr63         O66   1.779       .  S
Cr64         O66   1.771       .  S
Cr65         O66   1.776       .  S
O67         Cr85   2.028       .  S
O67          C75   1.272       .  A
O68         Cr85   1.967       .  S
O68          C69   1.257       .  A
C69          O70   1.267       .  A
C69         C900   1.473       .  S
O70         Cr86   2.015       .  S
O71         Cr86   1.993       .  S
O71          C72   1.259       .  A
C72          O73   1.259       .  A
C72         C882   1.481       .  S
O73         Cr87   1.980       .  S
O74         Cr87   1.978       .  S
O74          C75   1.262       .  A
C75         C866   1.489       .  S
O76         Cr85   1.991       .  S
O76          C84   1.259       .  A
O77         Cr85   2.021       .  S
O77          C78   1.268       .  A
C78          O79   1.259       .  A
C78        C1100   1.484       .  S
O79         Cr86   1.970       .  S
O80         Cr86   2.015       .  S
O80          C81   1.272       .  A
C81          O82   1.264       .  A
C81         C918   1.481       .  S
O82         Cr87   1.980       .  S
O83         Cr87   1.993       .  S
O83          C84   1.261       .  A
C84         C974   1.478       .  S
Cr85         O88   1.776       .  S
Cr86         O88   1.778       .  S
Cr87         O88   1.772       .  S
O89        Cr107   2.008       .  S
O89          C97   1.265       .  A
O90        Cr107   1.973       .  S
O90          C91   1.258       .  A
C91          O92   1.263       .  A
C91         C830   1.476       .  S
O92        Cr108   2.008       .  S
O93        Cr108   1.980       .  S
O93          C94   1.263       .  A
C94          O95   1.262       .  A
C94         C938   1.467       .  S
O95        Cr109   1.995       .  S
O96        Cr109   2.003       .  S
O96          C97   1.265       .  A
C97         C846   1.490       .  S
O98        Cr107   1.975       .  S
O98         C106   1.256       .  A
O99        Cr107   1.995       .  S
O99         C100   1.266       .  A
C100        O101   1.258       .  A
C100        C954   1.471   1_655  S
O101       Cr108   1.974       .  S
O102       Cr108   1.991       .  S
O102        C103   1.265       .  A
C103        O104   1.273       .  A
C103        C792   1.494       .  S
O104       Cr109   2.018       .  S
O105       Cr109   2.033       .  S
O105        C106   1.268       .  A
C106        C810   1.487       .  S
Cr107       O110   1.772       .  S
Cr108       O110   1.773       .  S
Cr109       O110   1.774       .  S
O111       Cr129   1.969       .  S
O111        C119   1.262       .  A
O112       Cr129   1.975       .  S
O112        C113   1.256       .  A
C113        O114   1.255       .  A
C113        C756   1.469       .  S
O114       Cr130   1.986       .  S
O115       Cr130   2.010       .  S
O115        C116   1.266       .  A
C116        O117   1.259       .  A
C116        C920   1.476       .  S
O117       Cr131   1.974       .  S
O118       Cr131   2.050       .  S
O118        C119   1.279       .  A
C119        C738   1.497       .  S
O120       Cr129   1.985       .  S
O120        C128   1.256       .  A
O121       Cr129   1.977   1_655  S
O121        C122   1.264       .  A
C122        O123   1.274   1_655  A
C122        C902   1.479       .  S
O123       Cr130   2.021       .  S
O124       Cr130   1.963       .  S
O124        C125   1.258       .  A
C125        O126   1.273       .  A
C125        C774   1.492       .  S
O126       Cr131   2.040       .  S
O127       Cr131   2.021       .  S
O127        C128   1.264       .  A
C128        C812   1.484       .  S
Cr129       O132   1.771       .  S
Cr130       O132   1.777       .  S
Cr131       O132   1.773       .  S
O133       Cr151   2.018       .  S
O133        C141   1.268       .  A
O134       Cr151   1.965       .  S
O134        C135   1.256       .  A
C135        O136   1.261       .  A
C135        C702   1.463       .  S
O136       Cr152   1.998       .  S
O137       Cr152   1.967       .  S
O137        C138   1.255       .  A
C138        O139   1.270       .  A
C138       C1118   1.468       .  S
O139       Cr153   2.029       .  S
O140       Cr153   1.997       .  S
O140        C141   1.264       .  A
C141        C722   1.494       .  S
O142       Cr151   1.968       .  S
O142        C150   1.255       .  A
O143       Cr151   2.011       .  S
O143        C144   1.269       .  A
C144        O145   1.258       .  A
C144       C1136   1.471   1_655  S
O145       Cr152   1.969       .  S
O146       Cr152   1.998       .  S
O146        C147   1.265       .  A
C147        O148   1.271       .  A
C147        C794   1.492       .  S
O148       Cr153   2.011       .  S
O149       Cr153   2.051       .  S
O149        C150   1.274       .  A
C150        C686   1.490       .  S
Cr151       O154   1.765       .  S
Cr152       O154   1.764       .  S
Cr153       O154   1.771       .  S
O155       Cr173   1.963       .  S
O155        C163   1.260       .  A
O156       Cr173   1.984       .  S
O156        C157   1.258       .  A
C157        O158   1.255       .  A
C157        C648   1.467       .  S
O158       Cr174   1.979       .  S
O159       Cr174   1.980       .  S
O159        C160   1.257       .  A
C160        O161   1.262       .  A
C160       C1082   1.473       .  S
O161       Cr175   1.993       .  S
O162       Cr175   2.060       .  S
O162        C163   1.279       .  A
C163        C668   1.495       .  S
O164       Cr173   1.987       .  S
O164        C172   1.259       .  A
O165       Cr173   1.982   1_655  S
O165        C166   1.264       .  A
C166        O167   1.265   1_655  A
C166       C1064   1.466       .  S
O167       Cr174   1.998       .  S
O168       Cr174   1.961       .  S
O168        C169   1.259       .  A
C169        O170   1.275       .  A
C169        C776   1.492       .  S
O170       Cr175   2.044       .  S
O171       Cr175   2.016       .  S
O171        C172   1.264       .  A
C172        C684   1.496       .  S
Cr173       O176   1.780       .  S
Cr174       O176   1.776       .  S
Cr175       O176   1.783       .  S
O177       Cr195   1.964       .  S
O177        C185   1.259       .  A
O178       Cr195   1.990       .  S
O178        C179   1.263       .  A
C179        O180   1.260       .  A
C179       C1208   1.472       .  S
O180       Cr196   1.984       .  S
O181       Cr196   2.012       .  S
O181        C182   1.262       .  A
C182        O183   1.252       .  A
C182        C578   1.472       .  S
O183       Cr197   1.968       .  S
O184       Cr197   2.043       .  S
O184        C185   1.276       .  A
C185        C720   1.488       .  S
O186       Cr195   1.986       .  S
O186        C194   1.260       .  A
O187       Cr195   1.983       .  S
O187        C188   1.260       .  A
C188        O189   1.269       .  A
C188        C594   1.478       .  S
O189       Cr196   2.013       .  S
O190       Cr196   1.959       .  S
O190        C191   1.260       .  A
C191        O192   1.279       .  A
C191        C612   1.496       .  S
O192       Cr197   2.055       .  S
O193       Cr197   2.001       .  S
O193        C194   1.262       .  A
C194        C630   1.486       .  S
Cr195       O198   1.772       .  S
Cr196       O198   1.779       .  S
Cr197       O198   1.775       .  S
O199       Cr217   1.964       .  S
O199        C207   1.257       .  A
O200       Cr217   1.985       .  S
O200        C201   1.265       .  A
C201        O202   1.259       .  A
C201       C1046   1.462       .  S
O202       Cr218   1.974       .  S
O203       Cr218   1.991       .  S
O203        C204   1.257       .  A
C204        O205   1.253       .  A
C204        C542   1.471       .  S
O205       Cr219   1.979       .  S
O206       Cr219   2.045       .  S
O206        C207   1.275       .  A
C207        C666   1.493       .  S
O208       Cr217   1.993       .  S
O208        C216   1.262       .  A
O209       Cr217   1.984       .  S
O209        C210   1.260       .  A
C210        O211   1.259       .  A
C210        C522   1.466       .  S
O211       Cr218   1.990       .  S
O212       Cr218   1.957       .  S
O212        C213   1.260       .  A
C213        O214   1.281       .  A
C213        C558   1.497       .  S
O214       Cr219   2.061       .  S
O215       Cr219   1.995       .  S
O215        C216   1.262       .  A
C216        C632   1.485       .  S
Cr217       O220   1.781       .  S
Cr218       O220   1.780       .  S
Cr219       O220   1.779       .  S
O221       Cr239   2.003       .  S
O221        C229   1.264       .  A
O222       Cr239   1.985       .  S
O222        C223   1.260       .  A
C223        O224   1.256       .  A
C223       C1008   1.463       .  S
O224       Cr240   1.977       .  S
O225       Cr240   1.982       .  S
O225        C226   1.259       .  A
C226        O227   1.267       .  A
C226        C468   1.481       .  S
O227       Cr241   2.012       .  S
O228       Cr241   2.012       .  S
O228        C229   1.267       .  A
C229        C848   1.490       .  S
O230       Cr239   1.975       .  S
O230        C238   1.258       .  A
O231       Cr239   1.990       .  S
O231        C232   1.263       .  A
C232        O233   1.264       .  A
C232        C486   1.467       .  S
O233       Cr240   1.982       .  S
O234       Cr240   1.988       .  S
O234        C235   1.262       .  A
C235        O236   1.273       .  A
C235        C614   1.497       .  S
O236       Cr241   2.025       .  S
O237       Cr241   2.039       .  S
O237        C238   1.270       .  A
C238        C504   1.496       .  S
Cr239       O242   1.779       .  S
Cr240       O242   1.776       .  S
Cr241       O242   1.778       .  S
O243       Cr261   2.013       .  S
O243        C251   1.267       .  A
O244       Cr261   1.970       .  S
O244        C245   1.255       .  A
C245        O246   1.262       .  A
C245        C884   1.472       .  S
O246       Cr262   2.003       .  S
O247       Cr262   1.985       .  S
O247        C248   1.262       .  A
C248        O249   1.263       .  A
C248        C450   1.472       .  S
O249       Cr263   2.000       .  S
O250       Cr263   1.996       .  S
O250        C251   1.265       .  A
C251        C740   1.492       .  S
O252       Cr261   1.987       .  S
O252        C260   1.260       .  A
O253       Cr261   2.018       .  S
O253        C254   1.270       .  A
C254        O255   1.259       .  A
C254        C432   1.473       .  S
O255       Cr262   1.969       .  S
O256       Cr262   1.999       .  S
O256        C257   1.265       .  A
C257        O258   1.273       .  A
C257        C560   1.497       .  S
O258       Cr263   2.018       .  S
O259       Cr263   2.022       .  S
O259        C260   1.267       .  A
C260        C506   1.493       .  S
Cr261       O264   1.785       .  S
Cr262       O264   1.777       .  S
Cr263       O264   1.773       .  S
O265       Cr283   2.029       .  S
O265        C273   1.272       .  A
O266       Cr283   1.969       .  S
O266        C267   1.257       .  A
C267        O268   1.266       .  A
C267        C596   1.473       .  S
O268       Cr284   2.014       .  S
O269       Cr284   1.983       .  S
O269        C270   1.257       .  A
C270        O271   1.261       .  A
C270        C704   1.473       .  S
O271       Cr285   1.984       .  S
O272       Cr285   1.981       .  S
O272        C273   1.262       .  A
C273       C1190   1.491       .  S
O274       Cr283   1.996       .  S
O274        C282   1.262       .  A
O275       Cr283   2.032       .  S
O275        C276   1.271       .  A
C276        O277   1.258       .  A
C276        C398   1.488       .  S
O277       Cr284   1.965       .  S
O278       Cr284   2.015       .  S
O278        C279   1.271   1_455  A
C279        O280   1.263   1_655  A
C279        C576   1.479       .  S
O280       Cr285   1.979       .  S
O281       Cr285   1.998       .  S
O281        C282   1.263       .  A
C282        C414   1.483       .  S
Cr283       O286   1.773       .  S
Cr284       O286   1.776       .  S
Cr285       O286   1.772       .  S
O287       Cr305   2.036       .  S
O287        C295   1.274       .  A
O288       Cr305   1.991       .  S
O288        C289   1.258       .  A
C289        O290   1.254       .  A
C289        C524   1.472       .  S
O290       Cr306   1.983       .  S
O291       Cr306   1.977       .  S
O291        C292   1.260       .  A
C292        O293   1.265       .  A
C292        C650   1.467       .  S
O293       Cr307   1.990       .  S
O294       Cr307   1.965       .  S
O294        C295   1.258       .  A
C295       C1028   1.486       .  S
O296       Cr305   2.004       .  S
O296        C304   1.263       .  A
O297       Cr305   2.043       .  S
O297        C298   1.277       .  A
C298        O299   1.262       .  A
C298        C378   1.485       .  S
O299       Cr306   1.957       .  S
O300       Cr306   1.991       .  S
O300        C301   1.262       .  A
C301        O302   1.258       .  A
C301        C540   1.476   1_655  S
O302       Cr307   1.986       .  S
O303       Cr307   1.978       .  S
O303        C304   1.259       .  A
C304        C416   1.485       .  S
Cr305       O308   1.781       .  S
Cr306       O308   1.778       .  S
Cr307       O308   1.777       .  S
O309       Cr327   1.984       .  S
O309        C317   1.263       .  A
O310       Cr327   1.995       .  S
O310        C311   1.263       .  A
C311        O312   1.265       .  A
C311        C488   1.469       .  S
O312       Cr328   1.988       .  S
O313       Cr328   1.996       .  S
O313        C314   1.258       .  A
C314        O315   1.256       .  A
C314        C828   1.475       .  S
O315       Cr329   1.975       .  S
O316       Cr329   2.020       .  S
O316        C317   1.271       .  A
C317        C992   1.490       .  S
O318       Cr327   2.002       .  S
O318        C326   1.261       .  A
O319       Cr327   2.014       .  S
O319        C320   1.268       .  A
C320        O321   1.262       .  A
C320        C396   1.491       .  S
O321       Cr328   1.994       .  S
O322       Cr328   1.976       .  S
O322        C323   1.263       .  A
C323        O324   1.271       .  A
C323        C470   1.479   1_455  S
O324       Cr329   2.016       .  S
O325       Cr329   1.990       .  S
O325        C326   1.258       .  A
C326        C360   1.485       .  S
Cr327       O330   1.778       .  S
Cr328       O330   1.780       .  S
Cr329       O330   1.784       .  S
O331       Cr349   2.030       .  S
O331        C339   1.274       .  A
O332       Cr349   1.985       .  S
O332        C333   1.260       .  A
C333        O334   1.259       .  A
C333        C434   1.473       .  S
O334       Cr350   1.987       .  S
O335       Cr350   1.989       .  S
O335        C336   1.256       .  A
C336        O337   1.255       .  A
C336        C758   1.467       .  S
O337       Cr351   1.971       .  S
O338       Cr351   1.976       .  S
O338        C339   1.263       .  A
C339        C864   1.489       .  S
O340       Cr349   2.007       .  S
O340        C348   1.262       .  A
O341       Cr349   2.021       .  S
O341        C342   1.270       .  A
C342        O343   1.261       .  A
C342        C380   1.481       .  S
O343       Cr350   1.966       .  S
O344       Cr350   2.007       .  S
O344        C345   1.270       .  A
C345        O346   1.266       .  A
C345        C452   1.480   1_655  S
O346       Cr351   1.986       .  S
O347       Cr351   1.982       .  S
O347        C348   1.257       .  A
C348        C362   1.486       .  S
Cr349       O352   1.779       .  S
Cr350       O352   1.777       .  S
Cr351       O352   1.776       .  S
C353        C361   1.489       .  S
C353        C354   1.404   1_655  A
C353        C358   1.406       .  A
C354        C355   1.398       .  A
C354        H363   1.083       .  S
C355        C356   1.407   1_455  A
C355        H364   1.082       .  S
C356        C359   1.496   1_655  S
C356        C357   1.408       .  A
C357        C358   1.407       .  A
C357        H365   1.083       .  S
C358        H366   1.083       .  S
C359        H367   1.086   1_455  S
C359        C360   1.350       .  D
C360        H368   1.085       .  S
C361        H369   1.088       .  S
C361        C362   1.352       .  D
C362        H370   1.085       .  S
C371        C379   1.490       .  S
C371        C372   1.408       .  A
C371        C376   1.404       .  A
C372        C373   1.404       .  A
C372        H381   1.084       .  S
C373        C374   1.405       .  A
C373        H382   1.082       .  S
C374        C377   1.486       .  S
C374        C375   1.405       .  A
C375        C376   1.399       .  A
C375        H383   1.084       .  S
C376        H384   1.082       .  S
C377        H385   1.088       .  S
C377        C378   1.352       .  D
C378        H386   1.086       .  S
C379        H387   1.088       .  S
C379        C380   1.352       .  D
C380        H388   1.085       .  S
C389        C397   1.499       .  S
C389        C390   1.410   1_565  A
C389        C394   1.407       .  A
C390        C391   1.404       .  A
C390        H399   1.083       .  S
C391        C392   1.404       .  A
C391        H400   1.082       .  S
C392        C395   1.493       .  S
C392        C393   1.407   1_545  A
C393        C394   1.401       .  A
C393        H401   1.083       .  S
C394        H402   1.080       .  S
C395        H403   1.087       .  S
C395        C396   1.357       .  D
C396        H404   1.085       .  S
C397        H405   1.087       .  S
C397        C398   1.356       .  D
C398        H406   1.083       .  S
C407        C415   1.490       .  S
C407        C408   1.407   1_655  A
C407        C412   1.406       .  A
C408        C409   1.401       .  A
C408        H417   1.083       .  S
C409        C410   1.405   1_455  A
C409        H418   1.083       .  S
C410        C413   1.489   1_655  S
C410        C411   1.406       .  A
C411        C412   1.403       .  A
C411        H419   1.083       .  S
C412        H420   1.082       .  S
C413        H421   1.087   1_455  S
C413        C414   1.350       .  D
C414        H422   1.086       .  S
C415        H423   1.088       .  S
C415        C416   1.352       .  D
C416        H424   1.085       .  S
C425        C433   1.483       .  S
C425        C426   1.401       .  A
C425        C430   1.407       .  A
C426        C427   1.399       .  A
C426        H435   1.083       .  S
C427        C428   1.410       .  A
C427        H436   1.082       .  S
C428        C431   1.486       .  S
C428        C429   1.402       .  A
C429        C430   1.397       .  A
C429        H437   1.083       .  S
C430        H438   1.083       .  S
C431        H439   1.087       .  S
C431        C432   1.345       .  D
C432        H440   1.084       .  S
C433        H441   1.086       .  S
C433        C434   1.343       .  D
C434        H442   1.086       .  S
C443        C451   1.485       .  S
C443        C444   1.402       .  A
C443        C448   1.407       .  A
C444        C445   1.396       .  A
C444        H453   1.084       .  S
C445        C446   1.409       .  A
C445        H454   1.081       .  S
C446        C449   1.491       .  S
C446        C447   1.404       .  A
C447        C448   1.402       .  A
C447        H455   1.083       .  S
C448        H456   1.081       .  S
C449        H457   1.087       .  S
C449        C450   1.345       .  D
C450        H458   1.084       .  S
C451        H459   1.087       .  S
C451        C452   1.348       .  D
C452        H460   1.085       .  S
C461        C469   1.495       .  S
C461        C462   1.407       .  A
C461        C466   1.409       .  A
C462        C463   1.402       .  A
C462        H471   1.084       .  S
C463        C464   1.407   1_545  A
C463        H472   1.081       .  S
C464        C467   1.488       .  S
C464        C465   1.403       .  A
C465        C466   1.397   1_565  A
C465        H473   1.084       .  S
C466        H474   1.079       .  S
C467        H475   1.087       .  S
C467        C468   1.347       .  D
C468        H476   1.085       .  S
C469        H477   1.087       .  S
C469        C470   1.350       .  D
C470        H478   1.082       .  S
C479        C487   1.485   1_565  S
C479        C480   1.403       .  A
C479        C484   1.407   1_565  A
C480        C481   1.400       .  A
C480        H489   1.083       .  S
C481        C482   1.407       .  A
C481        H490   1.082       .  S
C482        C485   1.482       .  S
C482        C483   1.402   1_565  A
C483        C484   1.395       .  A
C483        H491   1.084       .  S
C484        H492   1.082       .  S
C485        H493   1.088       .  S
C485        C486   1.341       .  D
C486        H494   1.086       .  S
C487        H495   1.087   1_545  S
C487        C488   1.341       .  D
C488        H496   1.086       .  S
C497        C505   1.507       .  S
C497        C498   1.410       .  A
C497        C502   1.409       .  A
C498        C499   1.409       .  A
C498        H507   1.083       .  S
C499        C500   1.408       .  A
C499        H508   1.082       .  S
C500        C503   1.502       .  S
C500        C501   1.407       .  A
C501        C502   1.403       .  A
C501        H509   1.083       .  S
C502        H510   1.080       .  S
C503        H511   1.087       .  S
C503        C504   1.356       .  D
C504        H512   1.085       .  S
C505        H513   1.087       .  S
C505        C506   1.356       .  D
C506        H514   1.083       .  S
C515        C523   1.484       .  S
C515        C516   1.400       .  A
C515        C520   1.410       .  A
C516        C517   1.395       .  A
C516        H525   1.083       .  S
C517        C518   1.409       .  A
C517        H526   1.082       .  S
C518        C521   1.484       .  S
C518        C519   1.401       .  A
C519        C520   1.400       .  A
C519        H527   1.083       .  S
C520        H528   1.082       .  S
C521        H529   1.087       .  S
C521        C522   1.342       .  D
C522        H530   1.086       .  S
C523        H531   1.087       .  S
C523        C524   1.341       .  D
C524        H532   1.086       .  S
C533        C541   1.481       .  S
C533        C534   1.404       .  A
C533        C538   1.404       .  A
C534        C535   1.400       .  A
C534        H543   1.083       .  S
C535        C536   1.407       .  A
C535        H544   1.080       .  S
C536        C539   1.483       .  S
C536        C537   1.404       .  A
C537        C538   1.393       .  A
C537        H545   1.084       .  S
C538        H546   1.081       .  S
C539        H547   1.088       .  S
C539        C540   1.348       .  D
C540        H548   1.083       .  S
C541        H549   1.087       .  S
C541        C542   1.347       .  D
C542        H550   1.085       .  S
C551        C559   1.502       .  S
C551        C552   1.412       .  A
C551        C556   1.404       .  A
C552        C553   1.408       .  A
C552        H561   1.083       .  S
C553        C554   1.406       .  A
C553        H562   1.081       .  S
C554        C557   1.502       .  S
C554        C555   1.410       .  A
C555        C556   1.404       .  A
C555        H563   1.083       .  S
C556        H564   1.081       .  S
C557        H565   1.087       .  S
C557        C558   1.361       .  D
C558        H566   1.084       .  S
C559        H567   1.087       .  S
C559        C560   1.362       .  D
C560        H568   1.084       .  S
C569        C577   1.486   1_565  S
C569        C570   1.403       .  A
C569        C574   1.406   1_565  A
C570        C571   1.402       .  A
C570        H579   1.083       .  S
C571        C572   1.410       .  A
C571        H580   1.080       .  S
C572        C575   1.490       .  S
C572        C573   1.404   1_565  A
C573        C574   1.395       .  A
C573        H581   1.084       .  S
C574        H582   1.082       .  S
C575        H583   1.087       .  S
C575        C576   1.348       .  D
C576        H584   1.083       .  S
C577        H585   1.087   1_545  S
C577        C578   1.345       .  D
C578        H586   1.086       .  S
C587        C595   1.488       .  S
C587        C588   1.406   1_565  A
C587        C592   1.407       .  A
C588        C589   1.403       .  A
C588        H597   1.083       .  S
C589        C590   1.406       .  A
C589        H598   1.082       .  S
C590        C593   1.481       .  S
C590        C591   1.402   1_545  A
C591        C592   1.394       .  A
C591        H599   1.084       .  S
C592        H600   1.081       .  S
C593        H601   1.088       .  S
C593        C594   1.346       .  D
C594        H602   1.086       .  S
C595        H603   1.087       .  S
C595        C596   1.346       .  D
C596        H604   1.085       .  S
C605        C613   1.498       .  S
C605        C606   1.404       .  A
C605        C610   1.411   1_565  A
C606        C607   1.405       .  A
C606        H615   1.082       .  S
C607        C608   1.411   1_565  A
C607        H616   1.083       .  S
C608        C611   1.501       .  S
C608        C609   1.405       .  A
C609        C610   1.406       .  A
C609        H617   1.081       .  S
C610        H618   1.083       .  S
C611        H619   1.087       .  S
C611        C612   1.360       .  D
C612        H620   1.084       .  S
C613        H621   1.087       .  S
C613        C614   1.362       .  D
C614        H622   1.085       .  S
C623        C631   1.492       .  S
C623        C624   1.408       .  A
C623        C628   1.406       .  A
C624        C625   1.405       .  A
C624        H633   1.084       .  S
C625        C626   1.406       .  A
C625        H634   1.082       .  S
C626        C629   1.488       .  S
C626        C627   1.405       .  A
C627        C628   1.400       .  A
C627        H635   1.084       .  S
C628        H636   1.082       .  S
C629        H637   1.088       .  S
C629        C630   1.351       .  D
C630        H638   1.086       .  S
C631        H639   1.087       .  S
C631        C632   1.351       .  D
C632        H640   1.086       .  S
C641        C649   1.473       .  S
C641        C642   1.402       .  A
C641        C646   1.404       .  A
C642        C643   1.392   1_655  A
C642        H651   1.084   1_655  S
C643        C644   1.406   1_455  A
C643        H652   1.079       .  S
C644        C647   1.477       .  S
C644        C645   1.404       .  A
C645        C646   1.393       .  A
C645        H653   1.084       .  S
C646        H654   1.081       .  S
C647        H655   1.088       .  S
C647        C648   1.346   1_655  D
C648        H656   1.082       .  S
C649        H657   1.088       .  S
C649        C650   1.345       .  D
C650        H658   1.084       .  S
C659        C667   1.516       .  S
C659        C660   1.408       .  A
C659        C664   1.414       .  A
C660        C661   1.410       .  A
C660        H669   1.083       .  S
C661        C662   1.414       .  A
C661        H670   1.080       .  S
C662        C665   1.513       .  S
C662        C663   1.406       .  A
C663        C664   1.405       .  A
C663        H671   1.083       .  S
C664        H672   1.079       .  S
C665        H673   1.087       .  S
C665        C666   1.351       .  D
C666        H674   1.083       .  S
C667        H675   1.086       .  S
C667        C668   1.353       .  D
C668        H676   1.082       .  S
C677        C685   1.503       .  S
C677        C678   1.402       .  A
C677        C682   1.415       .  A
C678        C679   1.398       .  A
C678        H687   1.084       .  S
C679        C680   1.406       .  A
C679        H688   1.083       .  S
C680        C683   1.498   1_655  S
C680        C681   1.408   1_655  A
C681        C682   1.412   1_455  A
C681        H689   1.082       .  S
C682        H690   1.081       .  S
C683        H691   1.087   1_455  S
C683        C684   1.356       .  D
C684        H692   1.085       .  S
C685        H693   1.087       .  S
C685        C686   1.347       .  D
C686        H694   1.085       .  S
C695        C703   1.478   1_655  S
C695        C696   1.404       .  A
C695        C700   1.407   1_665  A
C696        C697   1.390       .  A
C696        H705   1.084       .  S
C697        C698   1.402   1_565  A
C697        H706   1.083       .  S
C698        C701   1.474       .  S
C698        C699   1.402       .  A
C699        C700   1.397   1_655  A
C699        H707   1.084   1_655  S
C700        H708   1.080       .  S
C701        H709   1.087       .  S
C701        C702   1.342       .  D
C702        H710   1.086   1_545  S
C703        H711   1.088   1_455  S
C703        C704   1.347       .  D
C704        H712   1.083       .  S
C713        C721   1.504       .  S
C713        C714   1.405       .  A
C713        C718   1.411       .  A
C714        C715   1.403       .  A
C714        H723   1.083       .  S
C715        C716   1.411       .  A
C715        H724   1.080       .  S
C716        C719   1.509       .  S
C716        C717   1.408       .  A
C717        C718   1.409       .  A
C717        H725   1.083       .  S
C718        H726   1.081       .  S
C719        H727   1.087       .  S
C719        C720   1.352       .  D
C720        H728   1.083       .  S
C721        H729   1.087       .  S
C721        C722   1.353       .  D
C722        H730   1.084       .  S
C731        C739   1.503       .  S
C731        C732   1.404       .  A
C731        C736   1.414       .  A
C732        C733   1.399       .  A
C732        H741   1.084       .  S
C733        C734   1.405       .  A
C733        H742   1.083       .  S
C734        C737   1.501   1_556  S
C734        C735   1.410       .  A
C735        C736   1.412       .  A
C735        H743   1.081   1_556  S
C736        H744   1.080       .  S
C737        H745   1.087       .  S
C737        C738   1.356       .  D
C738        H746   1.084       .  S
C739        H747   1.087       .  S
C739        C740   1.351       .  D
C740        H748   1.084       .  S
C749        C757   1.467       .  S
C749        C750   1.402       .  A
C749        C754   1.400       .  A
C750        C751   1.392   1_656  A
C750        H759   1.084   1_655  S
C751        C752   1.404   1_455  A
C751        H760   1.080       .  S
C752        C755   1.473   1_655  S
C752        C753   1.405       .  A
C753        C754   1.392   1_554  A
C753        H761   1.084       .  S
C754        H762   1.082       .  S
C755        H763   1.088   1_455  S
C755        C756   1.347       .  D
C756        H764   1.084       .  S
C757        H765   1.087       .  S
C757        C758   1.346       .  D
C758        H766   1.086       .  S
C767        C775   1.498       .  S
C767        C768   1.405       .  A
C767        C772   1.410       .  A
C768        C769   1.405       .  A
C768        H777   1.082       .  S
C769        C770   1.411       .  A
C769        H778   1.083       .  S
C770        C773   1.500       .  S
C770        C771   1.405       .  A
C771        C772   1.405       .  A
C771        H779   1.081       .  S
C772        H780   1.083       .  S
C773        H781   1.087       .  S
C773        C774   1.358       .  D
C774        H782   1.084       .  S
C775        H783   1.088       .  S
C775        C776   1.358       .  D
C776        H784   1.085       .  S
C785        C793   1.497       .  S
C785        C786   1.405       .  A
C785        C790   1.411   1_545  A
C786        C787   1.402       .  A
C786        H795   1.081       .  S
C787        C788   1.410   1_545  A
C787        H796   1.083       .  S
C788        C791   1.497       .  S
C788        C789   1.404       .  A
C789        C790   1.404       .  A
C789        H797   1.081       .  S
C790        H798   1.083       .  S
C791        H799   1.087       .  S
C791        C792   1.361       .  D
C792        H800   1.084       .  S
C793        H801   1.087       .  S
C793        C794   1.359       .  D
C794        H802   1.083       .  S
C803        C811   1.499       .  S
C803        C804   1.405       .  A
C803        C808   1.409   1_455  A
C804        C805   1.407       .  A
C804        H813   1.083       .  S
C805        C806   1.412   1_455  A
C805        H814   1.081       .  S
C806        C809   1.498       .  S
C806        C807   1.404       .  A
C807        C808   1.400       .  A
C807        H815   1.084       .  S
C808        H816   1.082       .  S
C809        H817   1.087       .  S
C809        C810   1.348       .  D
C810        H818   1.085       .  S
C811        H819   1.086       .  S
C811        C812   1.346       .  D
C812        H820   1.087       .  S
C821        C829   1.489       .  S
C821        C822   1.405   1_554  A
C821        C826   1.407   1_565  A
C822        C823   1.398   1_655  A
C822        H831   1.083   1_656  S
C823        C824   1.407   1_565  A
C823        H832   1.081       .  S
C824        C827   1.489       .  S
C824        C825   1.405   1_455  A
C825        C826   1.399   1_556  A
C825        H833   1.083       .  S
C826        H834   1.081       .  S
C827        H835   1.087       .  S
C827        C828   1.347       .  D
C828        H836   1.084   1_545  S
C829        H837   1.087       .  S
C829        C830   1.348       .  D
C830        H838   1.084       .  S
C839        C847   1.502       .  S
C839        C840   1.405       .  A
C839        C844   1.409       .  A
C840        C841   1.407   1_556  A
C840        H849   1.083       .  S
C841        C842   1.412       .  A
C841        H850   1.081       .  S
C842        C845   1.503       .  S
C842        C843   1.406       .  A
C843        C844   1.404   1_554  A
C843        H851   1.083       .  S
C844        H852   1.082       .  S
C845        H853   1.087       .  S
C845        C846   1.352       .  D
C846        H854   1.084       .  S
C847        H855   1.086       .  S
C847        C848   1.350       .  D
C848        H856   1.086       .  S
C857        C865   1.497       .  S
C857        C858   1.407   1_554  A
C857        C862   1.408       .  A
C858        C859   1.403       .  A
C858        H867   1.084       .  S
C859        C860   1.408       .  A
C859        H868   1.081       .  S
C860        C863   1.497       .  S
C860        C861   1.407       .  A
C861        C862   1.404   1_556  A
C861        H869   1.084   1_556  S
C862        H870   1.081       .  S
C863        H871   1.087       .  S
C863        C864   1.353       .  D
C864        H872   1.085       .  S
C865        H873   1.087       .  S
C865        C866   1.352       .  D
C866        H874   1.085       .  S
C875        C883   1.487       .  S
C875        C876   1.407       .  A
C875        C880   1.405       .  A
C876        C877   1.402   1_556  A
C876        H885   1.083       .  S
C877        C878   1.405       .  A
C877        H886   1.081       .  S
C878        C881   1.481       .  S
C878        C879   1.403       .  A
C879        C880   1.392   1_554  A
C879        H887   1.084       .  S
C880        H888   1.081       .  S
C881        H889   1.087       .  S
C881        C882   1.351       .  D
C882        H890   1.084       .  S
C883        H891   1.087       .  S
C883        C884   1.349       .  D
C884        H892   1.084       .  S
C893        C901   1.488       .  S
C893        C894   1.403       .  A
C893        C898   1.410       .  A
C894        C895   1.394       .  A
C894        H903   1.084       .  S
C895        C896   1.406       .  A
C895        H904   1.082       .  S
C896        C899   1.487       .  S
C896        C897   1.403       .  A
C897        C898   1.402       .  A
C897        H905   1.083       .  S
C898        H906   1.080       .  S
C899        H907   1.087       .  S
C899        C900   1.345       .  D
C900        H908   1.085       .  S
C901        H909   1.087       .  S
C901        C902   1.347       .  D
C902        H910   1.083       .  S
C911        C919   1.493       .  S
C911        C912   1.406       .  A
C911        C916   1.408       .  A
C912        C913   1.404       .  A
C912        H921   1.083       .  S
C913        C914   1.409       .  A
C913        H922   1.080       .  S
C914        C917   1.490       .  S
C914        C915   1.403       .  A
C915        C916   1.394       .  A
C915        H923   1.083       .  S
C916        H924   1.080       .  S
C917        H925   1.087       .  S
C917        C918   1.348       .  D
C918        H926   1.083       .  S
C919        H927   1.087       .  S
C919        C920   1.348       .  D
C920        H928   1.084       .  S
C929        C937   1.487       .  S
C929        C930   1.402   1_565  A
C929        C934   1.410       .  A
C930        C931   1.397       .  A
C930        H939   1.084       .  S
C931        C932   1.407       .  A
C931        H940   1.082       .  S
C932        C935   1.482       .  S
C932        C933   1.400   1_545  A
C933        C934   1.395       .  A
C933        H941   1.084       .  S
C934        H942   1.080       .  S
C935        H943   1.087       .  S
C935        C936   1.342       .  D
C936        H944   1.085       .  S
C937        H945   1.088       .  S
C937        C938   1.343       .  D
C938        H946   1.083       .  S
C947        C955   1.480       .  S
C947        C948   1.403       .  A
C947        C952   1.407   1_545  A
C948        C949   1.398   1_545  A
C948        H957   1.083       .  S
C949        C950   1.407       .  A
C949        H958   1.082       .  S
C950        C953   1.477       .  S
C950        C951   1.400       .  A
C951        C952   1.391       .  A
C951        H959   1.084       .  S
C952        H960   1.081       .  S
C953        H961   1.087       .  S
C953        C954   1.343       .  D
C954        H962   1.085       .  S
C955        H963   1.087       .  S
C955        C956   1.342       .  D
C956        H964   1.085   1_545  S
C965        C973   1.484       .  S
C965        C966   1.404       .  A
C965        C970   1.406       .  A
C966        C967   1.398       .  A
C966        H975   1.083       .  S
C967        C968   1.401       .  A
C967        H976   1.083       .  S
C968        C971   1.488       .  S
C968        C969   1.409       .  A
C969        C970   1.400       .  A
C969        H977   1.082       .  S
C970        H978   1.082       .  S
C971        H979   1.087       .  S
C971        C972   1.344       .  D
C972        H980   1.086       .  S
C973        H981   1.088       .  S
C973        C974   1.348       .  D
C974        H982   1.085       .  S
C983        C991   1.505       .  S
C983        C984   1.407       .  A
C983        C988   1.410       .  A
C984        C985   1.404   1_556  A
C984        H993   1.083       .  S
C985        C986   1.410       .  A
C985        H994   1.079       .  S
C986        C989   1.504       .  S
C986        C987   1.407   1_554  A
C987        C988   1.405       .  A
C987        H995   1.083       .  S
C988        H996   1.080       .  S
C989        H997   1.087       .  S
C989        C990   1.353       .  D
C990        H998   1.083       .  S
C991        H999   1.087       .  S
C991        C992   1.353       .  D
C992       H1000   1.083       .  S
C1001      C1009   1.479       .  S
C1001      C1002   1.401   1_554  A
C1001      C1006   1.406   1_544  A
C1002      C1003   1.395       .  A
C1002      H1011   1.083   1_556  S
C1003      C1004   1.408   1_545  A
C1003      H1012   1.082       .  S
C1004      C1007   1.482       .  S
C1004      C1005   1.402       .  A
C1005      C1006   1.397       .  A
C1005      H1013   1.083       .  S
C1006      H1014   1.083   1_556  S
C1007      H1015   1.088       .  S
C1007      C1008   1.340       .  D
C1008      H1016   1.086       .  S
C1009      H1017   1.087       .  S
C1009      C1010   1.340       .  D
C1010      H1018   1.086   1_545  S
C1019      C1027   1.507       .  S
C1019      C1020   1.408       .  A
C1019      C1024   1.411       .  A
C1020      C1021   1.410       .  A
C1020      H1029   1.083       .  S
C1021      C1022   1.411       .  A
C1021      H1030   1.082       .  S
C1022      C1025   1.502       .  S
C1022      C1023   1.403       .  A
C1023      C1024   1.402       .  A
C1023      H1031   1.083       .  S
C1024      H1032   1.080       .  S
C1025      H1033   1.087       .  S
C1025      C1026   1.350       .  D
C1026      H1034   1.085       .  S
C1027      H1035   1.087       .  S
C1027      C1028   1.351       .  D
C1028      H1036   1.084       .  S
C1037      C1045   1.468       .  S
C1037      C1038   1.398       .  A
C1037      C1042   1.405       .  A
C1038      C1039   1.390       .  A
C1038      H1047   1.083       .  S
C1039      C1040   1.408       .  A
C1039      H1048   1.081       .  S
C1040      C1043   1.476       .  S
C1040      C1041   1.401       .  A
C1041      C1042   1.394       .  A
C1041      H1049   1.083       .  S
C1042      H1050   1.082       .  S
C1043      H1051   1.087       .  S
C1043      C1044   1.339       .  D
C1044      H1052   1.084       .  S
C1045      H1053   1.088       .  S
C1045      C1046   1.341       .  D
C1046      H1054   1.085       .  S
C1055      C1063   1.487       .  S
C1055      C1056   1.405       .  A
C1055      C1060   1.407       .  A
C1056      C1057   1.400       .  A
C1056      H1065   1.083       .  S
C1057      C1058   1.407       .  A
C1057      H1066   1.082       .  S
C1058      C1061   1.484       .  S
C1058      C1059   1.402       .  A
C1059      C1060   1.396       .  A
C1059      H1067   1.083       .  S
C1060      H1068   1.082       .  S
C1061      H1069   1.087       .  S
C1061      C1062   1.344       .  D
C1062      H1070   1.085       .  S
C1063      H1071   1.087       .  S
C1063      C1064   1.344       .  D
C1064      H1072   1.084       .  S
C1073      C1081   1.486       .  S
C1073      C1074   1.402       .  A
C1073      C1078   1.408       .  A
C1074      C1075   1.398       .  A
C1074      H1083   1.083       .  S
C1075      C1076   1.408       .  A
C1075      H1084   1.082       .  S
C1076      C1079   1.485       .  S
C1076      C1077   1.403       .  A
C1077      C1078   1.398       .  A
C1077      H1085   1.083       .  S
C1078      H1086   1.083       .  S
C1079      H1087   1.087       .  S
C1079      C1080   1.347       .  D
C1080      H1088   1.085       .  S
C1081      H1089   1.086       .  S
C1081      C1082   1.342       .  D
C1082      H1090   1.085       .  S
C1091      C1099   1.494       .  S
C1091      C1092   1.409       .  A
C1091      C1096   1.405       .  A
C1092      C1093   1.404       .  A
C1092      H1101   1.083       .  S
C1093      C1094   1.406       .  A
C1093      H1102   1.081       .  S
C1094      C1097   1.492       .  S
C1094      C1095   1.408       .  A
C1095      C1096   1.399       .  A
C1095      H1103   1.083       .  S
C1096      H1104   1.081       .  S
C1097      H1105   1.087       .  S
C1097      C1098   1.357       .  D
C1098      H1106   1.084       .  S
C1099      H1107   1.087       .  S
C1099      C1100   1.353       .  D
C1100      H1108   1.084       .  S
C1109      C1117   1.483   1_565  S
C1109      C1110   1.405       .  A
C1109      C1114   1.405       .  A
C1110      C1111   1.401       .  A
C1110      H1119   1.083       .  S
C1111      C1112   1.405       .  A
C1111      H1120   1.082       .  S
C1112      C1115   1.480       .  S
C1112      C1113   1.404       .  A
C1113      C1114   1.395       .  A
C1113      H1121   1.084       .  S
C1114      H1122   1.082   1_565  S
C1115      H1123   1.089       .  S
C1115      C1116   1.348       .  D
C1116      H1124   1.085       .  S
C1117      H1125   1.087       .  S
C1117      C1118   1.342       .  D
C1118      H1126   1.086       .  S
C1127      C1135   1.479       .  S
C1127      C1128   1.400       .  A
C1127      C1132   1.409   1_545  A
C1128      C1129   1.394       .  A
C1128      H1137   1.083       .  S
C1129      C1130   1.407   1_545  A
C1129      H1138   1.082       .  S
C1130      C1133   1.481       .  S
C1130      C1131   1.402       .  A
C1131      C1132   1.398       .  A
C1131      H1139   1.083       .  S
C1132      H1140   1.082       .  S
C1133      H1141   1.087       .  S
C1133      C1134   1.342       .  D
C1134      H1142   1.085       .  S
C1135      H1143   1.087       .  S
C1135      C1136   1.343       .  D
C1136      H1144   1.085       .  S
C1145      C1153   1.492       .  S
C1145      C1146   1.406   1_545  A
C1145      C1150   1.405       .  A
C1146      C1147   1.400       .  A
C1146      H1155   1.084       .  S
C1147      C1148   1.408       .  A
C1147      H1156   1.080       .  S
C1148      C1151   1.499       .  S
C1148      C1149   1.409   1_565  A
C1149      C1150   1.404       .  A
C1149      H1157   1.083       .  S
C1150      H1158   1.081       .  S
C1151      H1159   1.087       .  S
C1151      C1152   1.354       .  D
C1152      H1160   1.083       .  S
C1153      H1161   1.088       .  S
C1153      C1154   1.356       .  D
C1154      H1162   1.085       .  S
C1163      C1171   1.491       .  S
C1163      C1164   1.407       .  A
C1163      C1168   1.406       .  A
C1164      C1165   1.404       .  A
C1164      H1173   1.083       .  S
C1165      C1166   1.406       .  A
C1165      H1174   1.082       .  S
C1166      C1169   1.487       .  S
C1166      C1167   1.404       .  A
C1167      C1168   1.397       .  A
C1167      H1175   1.083       .  S
C1168      H1176   1.081       .  S
C1169      H1177   1.087       .  S
C1169      C1170   1.350       .  D
C1170      H1178   1.085       .  S
C1171      H1179   1.087       .  S
C1171      C1172   1.351       .  D
C1172      H1180   1.085       .  S
C1181      C1189   1.499       .  S
C1181      C1182   1.407       .  A
C1181      C1186   1.408       .  A
C1182      C1183   1.404       .  A
C1182      H1191   1.083       .  S
C1183      C1184   1.408       .  A
C1183      H1192   1.081       .  S
C1184      C1187   1.500       .  S
C1184      C1185   1.408       .  A
C1185      C1186   1.405       .  A
C1185      H1193   1.083       .  S
C1186      H1194   1.081       .  S
C1187      H1195   1.087       .  S
C1187      C1188   1.354       .  D
C1188      H1196   1.085       .  S
C1189      H1197   1.087       .  S
C1189      C1190   1.354       .  D
C1190      H1198   1.085       .  S
C1199      C1207   1.475       .  S
C1199      C1200   1.402       .  A
C1199      C1204   1.404   1_545  A
C1200      C1201   1.392       .  A
C1200      H1209   1.083       .  S
C1201      C1202   1.404   1_545  A
C1201      H1210   1.080       .  S
C1202      C1205   1.478       .  S
C1202      C1203   1.405       .  A
C1203      C1204   1.395       .  A
C1203      H1211   1.083       .  S
C1204      H1212   1.081       .  S
C1205      H1213   1.087       .  S
C1205      C1206   1.348       .  D
C1206      H1214   1.083       .  S
C1207      H1215   1.087       .  S
C1207      C1208   1.347       .  D
C1208      H1216   1.084   1_545  S
