geometry optimzed in LAMMPS
_audit_creation_date              2020-12-01 
_audit_creation_method            'lammps2cif' 
_symmetry_space_group_name_H-M    'P1' 
_symmetry_Int_Tables_number       1 
_symmetry_cell_setting            triclinic 
loop_ 
_symmetry_equiv_pos_as_xyz 
  x,y,z 
_cell_length_a                    38.10037378 
_cell_length_b                    34.0882044035454 
_cell_length_c                    44.133994568917295 
_cell_angle_alpha                 91.3233206644565 
_cell_angle_beta                  89.84851386102713 
_cell_angle_gamma                 90.53350276183573 
loop_ 
_atom_site_label 
_atom_site_type_symbol 
_atom_site_fract_x 
_atom_site_fract_y 
_atom_site_fract_z 
_atom_site_charge 
O1          O  0.21675564  0.54362005  0.12876010    -0.82900
C2          C  0.14367643  0.59981148  0.22701611     0.96400
O3          O  0.17149936  0.61628154  0.21689532    -0.72100
O4          O  0.22048129  0.56626795  0.20148641    -0.75600
Al5        Al  0.19889103  0.60678616  0.17987805     1.49000
C6          C  0.21749994  0.52943451  0.20204759     0.91700
O7          O  0.13761358  0.49932508  0.16207827    -0.81900
O8          O  0.12051000  0.59721109  0.12400880    -0.75400
Al9        Al  0.17549047  0.52883657  0.14714096     1.90100
O10         O  0.09684499  0.54218386  0.16079315    -0.74500
O11         O  0.12816463  0.64535911  0.17160878    -0.74300
O12         O  0.12136071  0.58407919  0.20894116    -0.80000
O13         O  0.18287848  0.65395673  0.16059130    -0.78200
O14         O  0.16561369  0.57517441  0.16425359    -1.14300
O15         O  0.23214177  0.60099284  0.14668219    -0.73500
C16         C  0.23786113  0.57168093  0.12935528     0.97200
C17         C  0.10592390  0.50716359  0.16143599     0.93600
Al18       Al  0.12111182  0.59062582  0.16626440     1.55600
O19         O  0.20000915  0.51059316  0.18205143    -0.78200
C20         C  0.15266564  0.66801224  0.16439285     0.97700
C21         C  0.13278360  0.57403723  0.10372394     0.92600
O22         O  0.15142033  0.54414103  0.11011337    -0.83500
O23         O  0.03844719  0.95351098  0.12509219    -0.82900
C24         C  0.12156243  0.90169307  0.21343578     0.96400
O25         O  0.09370074  0.88310325  0.20495587    -0.72100
O26         O  0.03823762  0.92546911  0.19360284    -0.75600
Al27       Al  0.06348800  0.88904282  0.16963978     1.49000
C28         C  0.03831908  0.96205051  0.19741232     0.91700
O29         O  0.11837655  0.00097283  0.15955206    -0.81900
O30         O  0.13405556  0.90633170  0.10953518    -0.75400
Al31       Al  0.08022078  0.97067904  0.14306804     1.90100
O32         O  0.16020625  0.96176157  0.14737946    -0.74500
O33         O  0.13659822  0.85619913  0.15618602    -0.74300
O34         O  0.14274689  0.91718565  0.19468333    -0.80000
O35         O  0.08181021  0.84368305  0.14834792    -0.78200
O36         O  0.09366810  0.92389575  0.15491036    -1.14300
O37         O  0.02907618  0.89256092  0.13728288    -0.73500
C38         C  0.02003081  0.92293137  0.12330554     0.97200
C39         C  0.15021819  0.99550189  0.15454375     0.93600
Al40       Al  0.13897796  0.91153186  0.15212364     1.55600
O41         O  0.05617509  0.98364848  0.18009322    -0.78200
C42         C  0.11264253  0.83166914  0.15133599     0.97700
C43         C  0.11891786  0.93117781  0.09287875     0.92600
O44         O  0.10249014  0.96094622  0.10396540    -0.83500
O45         O  0.14453773  0.95890099  0.35256257    -0.82900
C46         C  0.12214925  0.90759692  0.46376573     0.96400
O47         O  0.10175437  0.92298595  0.44462383    -0.72100
O48         O  0.08623870  0.96397179  0.39503880    -0.75600
Al49       Al  0.10568926  0.91389887  0.40234561     1.49000
C50         C  0.09688766  0.99789427  0.40148225     0.91700
O51         O  0.18990225  0.98599666  0.42860458    -0.81900
O52         O  0.21464635  0.89205987  0.38896718    -0.75400
Al53       Al  0.16633497  0.97129248  0.39151408     1.90100
O54         O  0.20576748  0.92832713  0.44398700    -0.74500
O55         O  0.16056332  0.84603131  0.39993831    -0.74300
O56         O  0.14902969  0.88746228  0.45579236    -0.80000
O57         O  0.10631716  0.85869324  0.40904238    -0.78200
O58         O  0.15123058  0.92573101  0.40487197    -1.14300
O59         O  0.11112793  0.90530870  0.36008197    -0.73500
C60         C  0.12727389  0.92870365  0.34254380     0.97200
C61         C  0.20659266  0.96502155  0.44693953     0.93600
Al62       Al  0.17991068  0.89120878  0.42076363     1.55600
O63         O  0.12879791  0.00335321  0.40643199    -0.78200
C64         C  0.12971582  0.83400573  0.40378703     0.97700
C65         C  0.22492404  0.92115849  0.37402019     0.92600
O66         O  0.20783633  0.95235168  0.37460582    -0.83500
O67         O  0.09596567  0.54273135  0.36020832    -0.82900
C68         C  0.10254052  0.60027945  0.47716539     0.96400
O69         O  0.12454651  0.58458358  0.45906905    -0.72100
O70         O  0.14849962  0.54048318  0.41256095    -0.75600
Al71       Al  0.12535224  0.58991146  0.41643148     1.49000
C72         C  0.13831538  0.50552065  0.41354709     0.91700
O73         O  0.04287772  0.51044379  0.43041382    -0.81900
O74         O  0.01331605  0.59967624  0.39705886    -0.75400
Al75       Al  0.06997447  0.52840818  0.39666684     1.90100
O76         O  0.02549387  0.56602161  0.45152694    -0.74500
O77         O  0.06351456  0.65305745  0.41076642    -0.74300
O78         O  0.07472465  0.61616683  0.46709974    -0.80000
O79         O  0.11846337  0.64492797  0.42031498    -0.78200
O80         O  0.08041877  0.57460838  0.41419799    -1.14300
O81         O  0.12735895  0.59566272  0.37420814    -0.73500
C82         C  0.11513662  0.57254330  0.35386870     0.97200
C83         C  0.02620296  0.52919938  0.45083302     0.93600
Al84       Al  0.04725289  0.60610287  0.43001563     1.55600
O85         O  0.10631411  0.49838351  0.41302763    -0.78200
C86         C  0.09384236  0.66746663  0.41402199     0.97700
C87         C  0.50878988  0.57133768  0.37842810     0.92600
O88         O  0.03046104  0.54436194  0.37716729    -0.83500
O89         O  0.28858354  0.04207970  0.12079820    -0.82900
C90         C  0.37257593  0.09165079  0.03122271     0.96400
O91         O  0.34639250  0.11229766  0.04022398    -0.72100
O92         O  0.29005193  0.06999614  0.05049673    -0.75600
Al93       Al  0.31539709  0.10550475  0.07528075     1.49000
C94         C  0.28801247  0.03338295  0.04735861     0.91700
O95         O  0.36644899  0.99208658  0.08557412    -0.81900
O96         O  0.38561240  0.08670918  0.13501555    -0.75400
Al97       Al  0.32928272  0.02363306  0.10222707     1.90100
O98         O  0.40946150  0.03110333  0.09662032    -0.74500
O99         O  0.38829018  0.13746729  0.08870130    -0.74300
O100        O  0.39321103  0.07564444  0.04976197    -0.80000
O101        O  0.33434267  0.14844571  0.09877372    -0.78200
O102        O  0.34423072  0.06988003  0.08992695    -1.14300
O103        O  0.28012536  0.10214002  0.10661126    -0.73500
C104        C  0.27075713  0.07273484  0.12162654     0.97200
C105        C  0.39858096  0.99736694  0.08989319     0.93600
Al106      Al  0.38985689  0.08162364  0.09228836     1.55600
O107        O  0.30417779  0.01140385  0.06538129    -0.78200
C108        C  0.36534424  0.16093858  0.09768362     0.97700
C109        C  0.36973511  0.06240242  0.15197834     0.92600
O110        O  0.35218923  0.03302072  0.14107834    -0.83500
O111        O  0.46513857  0.44860353  0.13214377    -0.82900
C112        C  0.39162491  0.39089077  0.03334568     0.96400
O113        O  0.41873262  0.37440062  0.04399565    -0.72100
O114        O  0.46694996  0.42641404  0.05754896    -0.75600
Al115      Al  0.44638872  0.38651708  0.08042319     1.49000
C116        C  0.46552228  0.46335241  0.05793151     0.91700
O117        O  0.38802462  0.49432160  0.09959028    -0.81900
O118        O  0.36664526  0.39715489  0.13598625    -0.75400
Al119      Al  0.42465849  0.46391421  0.11382338     1.90100
O120        O  0.34582114  0.45217580  0.09721427    -0.74500
O121        O  0.37588446  0.34733862  0.08943638    -0.74300
O122        O  0.36973494  0.40789153  0.05085666    -0.80000
O123        O  0.43017046  0.34188793  0.10230869    -0.78200
O124        O  0.41361573  0.41822313  0.09597938    -1.14300
O125        O  0.48112882  0.39328511  0.11201929    -0.73500
C126        C  0.48657044  0.42146474  0.13038766     0.97200
C127        C  0.35618304  0.48710725  0.09800960     0.93600
Al128      Al  0.36872788  0.40277974  0.09352118     1.55600
O129        O  0.44986659  0.48223026  0.07897961    -0.78200
C130        C  0.40009223  0.32671416  0.09958699     0.97700
C131        C  0.38009242  0.41894669  0.15668095     0.92600
O132        O  0.40015097  0.44822497  0.15071239    -0.83500
O133        O  0.34331906  0.44860928  0.40110240    -0.82900
C134        C  0.35149444  0.39228541  0.28409030     0.96400
O135        O  0.37380125  0.40754709  0.30240324    -0.72100
O136        O  0.39773266  0.45010130  0.35049105    -0.75600
Al137      Al  0.37338420  0.40132298  0.34525706     1.49000
C138        C  0.38878517  0.48519936  0.34909940     0.91700
O139        O  0.29424344  0.48182362  0.32961959    -0.81900
O140        O  0.26180674  0.39152257  0.36402716    -0.75400
Al141      Al  0.31912074  0.46347770  0.36416978     1.90100
O142        O  0.27442320  0.42632458  0.30949773    -0.74500
O143        O  0.31086249  0.33786106  0.34996659    -0.74300
O144        O  0.32333309  0.37627171  0.29403579    -0.80000
O145        O  0.36591921  0.34641678  0.34002750    -0.78200
O146        O  0.32890153  0.41702026  0.34696417    -1.14300
O147        O  0.37349989  0.39495976  0.38754540    -0.73500
C148        C  0.36136238  0.41841847  0.40768058     0.97200
C149        C  0.27699452  0.46316556  0.30942069     0.93600
Al150      Al  0.29553451  0.38563755  0.33098359     1.55600
O151        O  0.35703472  0.49299443  0.34877390    -0.78200
C152        C  0.34093169  0.32360406  0.34581183     0.97700
C153        C  0.25657170  0.42044422  0.38191467     0.92600
O154        O  0.27806672  0.44820370  0.38279674    -0.83500
O155        O  0.39392778  0.03042144  0.39148969    -0.82900
C156        C  0.37203378  0.08698612  0.28152893     0.96400
O157        O  0.35142573  0.07088422  0.30040230    -0.72100
O158        O  0.33589864  0.02669315  0.34801079    -0.75600
Al159      Al  0.35541141  0.07752307  0.34290832     1.49000
C160        C  0.34672470  0.99335055  0.34071539     0.91700
O161        O  0.44028334  0.00830926  0.31494721    -0.81900
O162        O  0.46499646  0.10078907  0.35594479    -0.75400
Al163      Al  0.41608005  0.02085266  0.35208491     1.90100
O164        O  0.45537035  0.06694882  0.30013497    -0.74500
O165        O  0.41062956  0.14694095  0.34649767    -0.74300
O166        O  0.39879223  0.10750614  0.28989592    -0.80000
O167        O  0.35598503  0.13314462  0.33888584    -0.78200
O168        O  0.40102408  0.06682737  0.33986542    -1.14300
O169        O  0.36068490  0.08360740  0.38532779    -0.73500
C170        C  0.37693503  0.06002886  0.40224700     0.97200
C171        C  0.45682025  0.03031612  0.29695103     0.93600
Al172      Al  0.42977443  0.10267162  0.32451949     1.55600
O173        O  0.37874808  0.98874079  0.33604790    -0.78200
C174        C  0.37939542  0.15806476  0.34473261     0.97700
C175        C  0.47493329  0.07125461  0.37035632     0.92600
O176        O  0.45728175  0.04009825  0.36948069    -0.83500
C177        C  0.33511765  0.25492051  0.36813379    -0.03000
C178        C  0.34812439  0.28030156  0.34568123     0.06700
C179        C  0.37092399  0.26456323  0.32321322    -0.03100
C180        C  0.38343526  0.22597381  0.32482947    -0.03100
C181        C  0.37014472  0.20047106  0.34678705     0.06800
C182        C  0.34508140  0.21483298  0.36795275    -0.03300
Br183      Br  0.32500371  0.17980742  0.39720245    -0.01800
Br184      Br  0.30463652  0.27475834  0.39967168    -0.01900
Br185      Br  0.41809600  0.20795560  0.29579170    -0.01900
Br186      Br  0.38202833  0.29394874  0.28765076    -0.01900
C187        C  0.41203201  0.40413841  0.47990671    -0.03000
C188        C  0.38537764  0.39159924  0.50001420     0.06700
C189        C  0.35155121  0.38345956  0.48827601    -0.03100
C190        C  0.34413124  0.39068815  0.45763417    -0.03100
C191        C  0.36909035  0.41004402  0.43956492     0.06800
C192        C  0.40326457  0.41617602  0.45062244    -0.03300
Br193      Br  0.43808575  0.44106476  0.42539106    -0.01800
Br194      Br  0.46093016  0.40063528  0.99015469    -0.01900
Br195      Br  0.30151394  0.37040680  0.43956953    -0.01900
Br196      Br  0.31659842  0.35839889  0.01319518    -0.01900
C197        C  0.33775107  0.41155681  0.19976239    -0.03000
C198        C  0.37225582  0.40933830  0.18859495     0.06700
C199        C  0.39849745  0.39394900  0.20711293    -0.03100
C200        C  0.39238454  0.38929553  0.23839065    -0.03100
C201        C  0.35808081  0.39411219  0.25054559     0.06800
C202        C  0.33034866  0.40216365  0.23011762    -0.03300
Br203      Br  0.28177626  0.39945429  0.24211353    -0.01800
Br204      Br  0.30033996  0.42628891  0.17292027    -0.01900
Br205      Br  0.43128640  0.37427604  0.26340627    -0.01900
Br206      Br  0.44009822  0.37227004  0.18841713    -0.01900
C207        C  0.38717215  0.11299066  0.47851924    -0.03000
C208        C  0.37719758  0.08330429  0.49845423     0.06700
C209        C  0.36899600  0.04541709  0.48672615    -0.03100
C210        C  0.36659824  0.03861738  0.45531761    -0.03100
C211        C  0.37700845  0.06797133  0.43530745     0.06800
C212        C  0.38898700  0.10464434  0.44711547    -0.03300
Br213      Br  0.41098439  0.14205790  0.42088029    -0.01800
Br214      Br  0.39957599  0.16440167  0.49441623    -0.01900
Br215      Br  0.34607929  0.99030298  0.43995432    -0.01900
Br216      Br  0.36083889  0.00228301  0.01324023    -0.01900
C217        C  0.37588293  0.03711762  0.20454632    -0.03000
C218        C  0.37033935  0.06891081  0.18531124     0.06700
C219        C  0.36257698  0.10629523  0.19824577    -0.03100
C220        C  0.36067364  0.11160249  0.22991394    -0.03100
C221        C  0.36668238  0.07992917  0.24887007     0.06800
C222        C  0.37339893  0.04241083  0.23613312    -0.03300
Br223      Br  0.38195359  0.99845826  0.26171959    -0.01800
Br224      Br  0.39069085  0.98710567  0.18813740    -0.01900
Br225      Br  0.34845025  0.16190249  0.24772017    -0.01900
Br226      Br  0.35360912  0.15062176  0.17329310    -0.01900
C227        C  0.41048832  0.21550734  0.10654791    -0.03000
C228        C  0.37471101  0.20309892  0.10544821     0.06700
C229        C  0.34865860  0.23189501  0.11112329    -0.03100
C230        C  0.35801541  0.27206563  0.11300148    -0.03100
C231        C  0.39282663  0.28450001  0.10658989     0.06800
C232        C  0.41942316  0.25579589  0.10558835    -0.03300
Br233      Br  0.46853709  0.27030124  0.10266065    -0.01800
Br234      Br  0.44794224  0.17837960  0.11221323    -0.01900
Br235      Br  0.32338465  0.30951406  0.12721372    -0.01900
Br236      Br  0.29976911  0.21801905  0.11731764    -0.01900
C237        C  0.19067720  0.41636478  0.38723250    -0.03000
C238        C  0.22360468  0.42650014  0.39993771     0.06700
C239        C  0.22427800  0.45395897  0.42469324    -0.03100
C240        C  0.19474259  0.47708166  0.43141048    -0.03100
C241        C  0.16429911  0.47307174  0.41366813     0.06800
C242        C  0.16112634  0.44007849  0.39362939    -0.03300
Br243      Br  0.11761559  0.42872365  0.37276603    -0.01800
Br244      Br  0.18615308  0.37164858  0.35986389    -0.01900
Br245      Br  0.19598726  0.51462052  0.46487280    -0.01900
Br246      Br  0.26630121  0.46267866  0.44839517    -0.01900
C247        C  0.41349190  0.55097441  0.36761252    -0.03000
C248        C  0.41596174  0.51687810  0.34870999     0.06700
C249        C  0.44642316  0.51142249  0.33116515    -0.03100
C250        C  0.47645307  0.53463327  0.33693247    -0.03100
C251        C  0.47606009  0.56433729  0.36018575     0.06800
C252        C  0.44317661  0.57573065  0.37202431    -0.03300
Br253      Br  0.43868718  0.62478457  0.39423257    -0.01800
Br254      Br  0.37121536  0.56200402  0.39027743    -0.01900
Br255      Br  0.01848513  0.52256660  0.31411712    -0.01900
Br256      Br  0.44731582  0.47130474  0.29952856    -0.01900
C257        C  0.46038042  0.50496849  0.51209580    -0.03000
C258        C  0.48149812  0.48356323  0.03197563     0.06700
C259        C  0.01650676  0.47545802  0.02385274    -0.03100
C260        C  0.03015713  0.48727518  0.99587338    -0.03100
C261        C  0.00922390  0.50899540  0.47626354     0.06800
C262        C  0.47442801  0.51820678  0.48453115    -0.03300
Br263      Br  0.44561541  0.54839577  0.45791232    -0.01800
Br264      Br  0.41157840  0.51394910  0.52168169    -0.01900
Br265      Br  0.07831490  0.47560277  0.98553397    -0.01900
Br266      Br  0.04639076  0.44904086  0.05169908    -0.01900
C267        C  0.08243338  0.73504035  0.39179014    -0.03000
C268        C  0.10159589  0.71068713  0.41132641     0.06700
C269        C  0.12969011  0.72788658  0.42824369    -0.03100
C270        C  0.14024701  0.76704857  0.42395781    -0.03100
C271        C  0.12112710  0.79124933  0.40464594     0.06800
C272        C  0.09167270  0.77523917  0.38907881    -0.03300
Br273      Br  0.06432634  0.80818821  0.36325433    -0.01800
Br274      Br  0.04376950  0.71406619  0.36810617    -0.01900
Br275      Br  0.18003974  0.78775495  0.44659223    -0.01900
Br276      Br  0.15195144  0.70015826  0.46044185    -0.01900
C277        C  0.07227198  0.06000427  0.38062334    -0.03000
C278        C  0.07112652  0.03037283  0.40241435     0.06700
C279        C  0.04088385  0.02654555  0.42047016    -0.03100
C280        C  0.01024216  0.04697192  0.41326527    -0.03100
C281        C  0.00898751  0.06946356  0.38676238     0.06800
C282        C  0.04083140  0.07820180  0.37166873    -0.03300
Br283      Br  0.04091878  0.10974365  0.33594532    -0.01800
Br284      Br  0.11638985  0.07448166  0.36241787    -0.01900
Br285      Br  0.96871824  0.04047529  0.43785349    -0.01900
Br286      Br  0.04110538  0.99183111  0.45433893    -0.01900
C287        C  0.26023507  0.94241841  0.32986673    -0.03000
C288        C  0.25879517  0.92212734  0.35742619     0.06700
C289        C  0.29044705  0.91499198  0.37292642    -0.03100
C290        C  0.32208081  0.93227955  0.36286388    -0.03100
C291        C  0.32132453  0.96010856  0.33978811     0.06800
C292        C  0.29113811  0.96244343  0.32161516    -0.03300
Br293      Br  0.29159726  0.99474553  0.28635659    -0.01800
Br294      Br  0.21860004  0.94676347  0.30535244    -0.01900
Br295      Br  0.36594287  0.92017655  0.38195221    -0.01900
Br296      Br  0.28996875  0.88838142  0.41101478    -0.01900
C297        C  0.24456021  0.01936354  0.46944798    -0.03000
C298        C  0.22714686  0.98291885  0.47268890     0.06700
C299        C  0.22985756  0.96340763  0.50078560    -0.03100
C300        C  0.24805939  0.98093902  0.02542066    -0.03100
C301        C  0.26651567  0.01658226  0.02183933     0.06800
C302        C  0.26378313  0.03624947  0.99383725    -0.03300
Br303      Br  0.28592536  0.08677673  0.98752879    -0.01800
Br304      Br  0.24512845  0.04516523  0.43075929    -0.01900
Br305      Br  0.24452651  0.95753199  0.06497231    -0.01900
Br306      Br  0.20929064  0.91207992  0.50700504    -0.01900
C307        C  0.99843721  0.01418971  0.21864473    -0.03000
C308        C  0.01725639  0.97930294  0.22280563     0.06700
C309        C  0.51565573  0.96108086  0.25138869    -0.03100
C310        C  0.49765614  0.97901117  0.27584512    -0.03100
C311        C  0.47819747  0.01341929  0.27155284     0.06800
C312        C  0.97952257  0.03147426  0.24289032    -0.03300
Br313      Br  0.95643905  0.08062593  0.23578966    -0.01800
Br314      Br  0.99510613  0.03637639  0.17873212    -0.01900
Br315      Br  0.50357344  0.95868622  0.31612261    -0.01900
Br316      Br  0.53648035  0.91050359  0.25793425    -0.01900
C317        C  0.12495907  0.95170262  0.00921497    -0.03000
C318        C  0.11599314  0.91483308  0.99624856     0.06700
C319        C  0.10688034  0.88354520  0.01491267    -0.03100
C320        C  0.10734750  0.88888980  0.04662194    -0.03100
C321        C  0.11917505  0.92494213  0.05967106     0.06800
C322        C  0.12848818  0.95603477  0.04073422    -0.03300
Br323      Br  0.14999249  0.00298519  0.05745156    -0.01800
Br324      Br  0.13372281  0.99612901  0.48405644    -0.01900
Br325      Br  0.09010923  0.84732458  0.07167712    -0.01900
Br326      Br  0.09264687  0.83396595  0.99661141    -0.01900
C327        C  0.13597072  0.88392189  0.29694144    -0.03000
C328        C  0.12629550  0.92092000  0.30949727     0.06700
C329        C  0.11804983  0.95164163  0.29014764    -0.03100
C330        C  0.12040708  0.94606477  0.25867908    -0.03100
C331        C  0.12729550  0.90854141  0.24611369     0.06800
C332        C  0.13557930  0.87754348  0.26522691    -0.03300
Br333      Br  0.14844024  0.82735648  0.24761972    -0.01800
Br334      Br  0.15165383  0.84261724  0.32266977    -0.01900
Br335      Br  0.11340617  0.99021491  0.23308355    -0.01900
Br336      Br  0.10011206  0.00041134  0.30650347    -0.01900
C337        C  0.45509339  0.96866279  0.07159339    -0.03000
C338        C  0.42427417  0.96468363  0.08890747     0.06700
C339        C  0.42277052  0.93533109  0.11085425    -0.03100
C340        C  0.45403005  0.91745261  0.12066615    -0.03100
C341        C  0.48641507  0.92635388  0.10646172     0.06800
C342        C  0.48593170  0.94920584  0.08002480    -0.03300
Br343      Br  0.02821568  0.95748442  0.05695047    -0.01800
Br344      Br  0.45490360  0.00155635  0.03660821    -0.01900
Br345      Br  0.45272835  0.88617459  0.15646928    -0.01900
Br346      Br  0.37813333  0.92089662  0.12809848    -0.01900
C347        C  0.20503205  0.07690978  0.12328753    -0.03000
C348        C  0.23702005  0.07055327  0.13845690     0.06700
C349        C  0.23635256  0.04914476  0.16546637    -0.03100
C350        C  0.20674059  0.02610238  0.17261373    -0.03100
C351        C  0.17613743  0.02834365  0.15491500     0.06800
C352        C  0.17411282  0.05765652  0.13295062    -0.03300
Br353      Br  0.12959289  0.06976745  0.11500028    -0.01800
Br354      Br  0.20417024  0.10633217  0.08650934    -0.01900
Br355      Br  0.20871896  0.99024176  0.20568799    -0.01900
Br356      Br  0.27727823  0.04907622  0.19108952    -0.01900
C357        C  0.21123429  0.49086567  0.24939504    -0.03000
C358        C  0.23321249  0.50933372  0.22813387     0.06700
C359        C  0.26916160  0.51470866  0.23481961    -0.03100
C360        C  0.28297814  0.50243887  0.26259746    -0.03100
C361        C  0.26109307  0.48354510  0.28365079     0.06800
C362        C  0.22518554  0.47787737  0.27694315    -0.03300
Br363      Br  0.19481103  0.45365962  0.30620904    -0.01800
Br364      Br  0.16157885  0.48525165  0.24162320    -0.01900
Br365      Br  0.33236597  0.50981464  0.27108407    -0.01900
Br366      Br  0.29997431  0.53695980  0.20512854    -0.01900
C367        C  0.08216919  0.58909488  0.03115450    -0.03000
C368        C  0.10942867  0.59883908  0.01052891     0.06700
C369        C  0.14400409  0.60379928  0.02203571    -0.03100
C370        C  0.15084100  0.59836235  0.05299542    -0.03100
C371        C  0.12482732  0.58252240  0.07183464     0.06800
C372        C  0.09027243  0.57873766  0.06108120    -0.03300
Br373      Br  0.05404093  0.55917204  0.08766925    -0.01800
Br374      Br  0.03345275  0.59066742  0.01993838    -0.01900
Br375      Br  0.19426229  0.61735306  0.07050059    -0.01900
Br376      Br  0.18252216  0.61912480  0.49642222    -0.01900
C377        C  0.10297793  0.60219653  0.27238735    -0.03000
C378        C  0.13735290  0.59798875  0.26045040     0.06700
C379        C  0.16511679  0.59002646  0.28084057    -0.03100
C380        C  0.15762581  0.57998136  0.31102652    -0.03100
C381        C  0.12298271  0.58152942  0.32196411     0.06800
C382        C  0.09657391  0.59645665  0.30341118    -0.03300
Br383      Br  0.05369038  0.61526787  0.32161533    -0.01800
Br384      Br  0.06451612  0.61844908  0.24737253    -0.01900
Br385      Br  0.19498234  0.56509310  0.33789106    -0.01900
Br386      Br  0.21371817  0.59427035  0.26910566    -0.01900
C387        C  0.11871142  0.72811675  0.18033618    -0.03000
C388        C  0.14444526  0.71075209  0.16113908     0.06700
C389        C  0.15941028  0.73376056  0.13805684    -0.03100
C390        C  0.14843773  0.77298461  0.13420388    -0.03100
C391        C  0.12107143  0.78905546  0.15220798     0.06800
C392        C  0.10595974  0.76598262  0.17498442    -0.03300
Br393      Br  0.06892680  0.78673842  0.20055083    -0.01800
Br394      Br  0.10350201  0.70246729  0.21668068    -0.01900
Br395      Br  0.17069082  0.80458744  0.10379249    -0.01900
Br396      Br  0.19461920  0.71204604  0.11129457    -0.01900
C397        C  0.30345245  0.57451383  0.12648744    -0.03000
C398        C  0.27118652  0.56565287  0.11207343     0.06700
C399        C  0.27142101  0.53913014  0.08660384    -0.03100
C400        C  0.30190930  0.51814224  0.07909736    -0.03100
C401        C  0.33067800  0.51964022  0.09876038     0.06800
C402        C  0.33250048  0.54978310  0.12133861    -0.03300
Br403      Br  0.37257239  0.55458341  0.14794310    -0.01800
Br404      Br  0.30740254  0.61796533  0.15516742    -0.01900
Br405      Br  0.30461753  0.48681730  0.04209772    -0.01900
Br406      Br  0.22954606  0.52656527  0.06369299    -0.01900
C407        C  0.05216857  0.41926053  0.13332657    -0.03000
C408        C  0.01982641  0.42770179  0.14760324     0.06700
C409        C  0.01971160  0.45475193  0.17261452    -0.03100
C410        C  0.04932091  0.47833247  0.17886962    -0.03100
C411        C  0.07912121  0.47549813  0.16019899     0.06800
C412        C  0.08124393  0.44454879  0.13832299    -0.03300
Br413      Br  0.12147023  0.44007577  0.11177646    -0.01800
Br414      Br  0.05646176  0.37470569  0.10578534    -0.01900
Br415      Br  0.04823031  0.51638575  0.21201223    -0.01900
Br416      Br  0.47798836  0.46291958  0.19695963    -0.01900
O417        O  0.21673834  0.54351101  0.62886763    -0.82900
C418        C  0.14368527  0.59982239  0.72703973     0.96400
O419        O  0.17151348  0.61625253  0.71690323    -0.72100
O420        O  0.22045697  0.56620041  0.70147228    -0.75600
Al421      Al  0.19885694  0.60674304  0.67988273     1.49000
C422        C  0.21739277  0.52937451  0.70208586     0.91700
O423        O  0.13749857  0.49928000  0.66204565    -0.81900
O424        O  0.12042806  0.59712813  0.62403549    -0.75400
Al425      Al  0.17541582  0.52878644  0.64718649     1.90100
O426        O  0.09674758  0.54216481  0.66090039    -0.74500
O427        O  0.12812449  0.64534756  0.67160338    -0.74300
O428        O  0.12133599  0.58411427  0.70898447    -0.80000
O429        O  0.18285085  0.65392981  0.66062888    -0.78200
O430        O  0.16555142  0.57513832  0.66428269    -1.14300
O431        O  0.23206773  0.60096088  0.64666154    -0.73500
C432        C  0.23781640  0.57159816  0.62939920     0.97200
C433        C  0.10581100  0.50713494  0.66148194     0.93600
Al434      Al  0.12105484  0.59060407  0.66630454     1.55600
O435        O  0.19984020  0.51053595  0.68213124    -0.78200
C436        C  0.15264243  0.66799830  0.66442496     0.97700
C437        C  0.13275258  0.57398483  0.60375026     0.92600
O438        O  0.15142576  0.54411906  0.61013924    -0.83500
O439        O  0.03861002  0.95355113  0.62502703    -0.82900
C440        C  0.12162432  0.90177413  0.71346937     0.96400
O441        O  0.09376657  0.88318464  0.70498215    -0.72100
O442        O  0.03834323  0.92560482  0.69360354    -0.75600
Al443      Al  0.06357599  0.88912714  0.66965883     1.49000
C444        C  0.03843273  0.96219235  0.69738517     0.91700
O445        O  0.11849715  0.00099996  0.65952507    -0.81900
O446        O  0.13421906  0.90629654  0.60958974    -0.75400
Al447      Al  0.08036331  0.97071362  0.64302829     1.90100
O448        O  0.16033564  0.96177790  0.64740157    -0.74500
O449        O  0.13667148  0.85621920  0.65627456    -0.74300
O450        O  0.14282313  0.91725715  0.69472604    -0.80000
O451        O  0.08188442  0.84373811  0.64839159    -0.78200
O452        O  0.09378272  0.92394187  0.65491856    -1.14300
O453        O  0.02918104  0.89264058  0.63729303    -0.73500
C454        C  0.02017033  0.92298939  0.62327346     0.97200
C455        C  0.15033740  0.99552908  0.65452594     0.93600
Al456      Al  0.13909279  0.91155208  0.65217342     1.55600
O457        O  0.05628304  0.98375289  0.68003299    -0.78200
C458        C  0.11270697  0.83170177  0.65140712     0.97700
C459        C  0.11911565  0.93112806  0.59289999     0.92600
O460        O  0.10267916  0.96091543  0.60394756    -0.83500
O461        O  0.14447285  0.95901164  0.85258805    -0.82900
C462        C  0.12193770  0.90774032  0.96374891     0.96400
O463        O  0.10158593  0.92316033  0.94459065    -0.72100
O464        O  0.08615661  0.96411001  0.89496684    -0.75600
Al465      Al  0.10557660  0.91403202  0.90233142     1.49000
C466        C  0.09680409  0.99802113  0.90145471     0.91700
O467        O  0.18979795  0.98609865  0.92866455    -0.81900
O468        O  0.21456763  0.89218955  0.88908270    -0.75400
Al469      Al  0.16624778  0.97140708  0.89155562     1.90100
O470        O  0.20556725  0.92841421  0.94409257    -0.74500
O471        O  0.16043780  0.84620463  0.89991866    -0.74300
O472        O  0.14880626  0.88756730  0.95579996    -0.80000
O473        O  0.10619940  0.85882440  0.90907211    -0.78200
O474        O  0.15111843  0.92585906  0.90490103    -1.14300
O475        O  0.11107686  0.90540030  0.86008861    -0.73500
C476        C  0.12723285  0.92879748  0.84256118     0.97200
C477        C  0.20643053  0.96510735  0.94702973     0.93600
Al478      Al  0.17975976  0.89132912  0.92081703     1.55600
O479        O  0.12870446  0.00346177  0.90646355    -0.78200
C480        C  0.12960513  0.83415024  0.90379341     0.97700
C481        C  0.22484853  0.92126860  0.87411696     0.92600
O482        O  0.20775273  0.95245533  0.87466445    -0.83500
O483        O  0.09618427  0.54272316  0.86023634    -0.82900
C484        C  0.10262233  0.60037621  0.97713959     0.96400
O485        O  0.12463328  0.58466051  0.95905597    -0.72100
O486        O  0.14861768  0.54057501  0.91252443    -0.75600
Al487      Al  0.12545042  0.58999339  0.91641745     1.49000
C488        C  0.13843867  0.50561547  0.91357717     0.91700
O489        O  0.04295120  0.51050785  0.93036458    -0.81900
O490        O  0.01339921  0.59964191  0.89702527    -0.75400
Al491      Al  0.07012120  0.52845082  0.89666237     1.90100
O492        O  0.02561885  0.56608629  0.95150825    -0.74500
O493        O  0.06359246  0.65309880  0.91070454    -0.74300
O494        O  0.07481673  0.61627046  0.96705733    -0.80000
O495        O  0.11852457  0.64499240  0.92029897    -0.78200
O496        O  0.08052639  0.57466686  0.91417732    -1.14300
O497        O  0.12745829  0.59575462  0.87420658    -0.73500
C498        C  0.11529600  0.57257431  0.85388422     0.97200
C499        C  0.02629535  0.52926632  0.95079058     0.93600
Al500      Al  0.04734575  0.60615012  0.92997721     1.55600
O501        O  0.10643436  0.49847967  0.91312990    -0.78200
C502        C  0.09391292  0.66752753  0.91398466     0.97700
C503        C  0.50864283  0.57142343  0.87848005     0.92600
O504        O  0.03065341  0.54439549  0.87708267    -0.83500
O505        O  0.28849924  0.04223369  0.62070191    -0.82900
C506        C  0.37259482  0.09164182  0.53120392     0.96400
O507        O  0.34640744  0.11230469  0.54017426    -0.72100
O508        O  0.28999679  0.07009965  0.55047520    -0.75600
Al509      Al  0.31540244  0.10561767  0.57523479     1.49000
C510        C  0.28799324  0.03348258  0.54731855     0.91700
O511        O  0.36638240  0.99212230  0.58562048    -0.81900
O512        O  0.38555543  0.08676480  0.63502082    -0.75400
Al513      Al  0.32920921  0.02373373  0.60220393     1.90100
O514        O  0.40938954  0.03113197  0.59667769    -0.74500
O515        O  0.38833459  0.13744188  0.58866373    -0.74300
O516        O  0.39320040  0.07562568  0.54976531    -0.80000
O517        O  0.33441028  0.14859767  0.59867510    -0.78200
O518        O  0.34419776  0.06996247  0.58990827    -1.14300
O519        O  0.28014020  0.10234593  0.60658646    -0.73500
C520        C  0.27072800  0.07292815  0.62156969     0.97200
C521        C  0.39851196  0.99739749  0.58995706     0.93600
Al522      Al  0.38982453  0.08164139  0.59229320     1.55600
O523        O  0.30417781  0.01151108  0.56533193    -0.78200
C524        C  0.36544285  0.16099687  0.59759962     0.97700
C525        C  0.36964843  0.06247923  0.65198389     0.92600
O526        O  0.35205504  0.03313421  0.64108038    -0.83500
O527        O  0.46506721  0.44861851  0.63219058    -0.82900
C528        C  0.39158819  0.39103306  0.53332048     0.96400
O529        O  0.41870141  0.37452520  0.54393916    -0.72100
O530        O  0.46690523  0.42656467  0.55743665    -0.75600
Al531      Al  0.44640813  0.38665977  0.58032278     1.49000
C532        C  0.46555913  0.46350285  0.55790002     0.91700
O533        O  0.38803690  0.49437792  0.59942583    -0.81900
O534        O  0.36672511  0.39712180  0.63595729    -0.75400
Al535      Al  0.42464814  0.46400661  0.61378947     1.90100
O536        O  0.34583316  0.45220764  0.59729344    -0.74500
O537        O  0.37595871  0.34739954  0.58934193    -0.74300
O538        O  0.36971826  0.40803050  0.55085266    -0.80000
O539        O  0.43026106  0.34202285  0.60221728    -0.78200
O540        O  0.41363530  0.41831913  0.59593157    -1.14300
O541        O  0.48118449  0.39346251  0.61185787    -0.73500
C542        C  0.48656070  0.42154161  0.63032926     0.97200
C543        C  0.35618627  0.48714453  0.59797147     0.93600
Al544      Al  0.36875736  0.40283103  0.59350491     1.55600
O545        O  0.44996499  0.48234706  0.57899924    -0.78200
C546        C  0.40021484  0.32679360  0.59944031     0.97700
C547        C  0.38007139  0.41900224  0.65664242     0.92600
O548        O  0.40004161  0.44835101  0.65065624    -0.83500
O549        O  0.34333611  0.44857075  0.90111161    -0.82900
C550        C  0.35150256  0.39228163  0.78407205     0.96400
O551        O  0.37379732  0.40755636  0.80238955    -0.72100
O552        O  0.39772007  0.45013796  0.85047084    -0.75600
Al553      Al  0.37340321  0.40132696  0.84524623     1.49000
C554        C  0.38872852  0.48522458  0.84909315     0.91700
O555        O  0.29420307  0.48174919  0.82961554    -0.81900
O556        O  0.26179372  0.39145984  0.86401165    -0.75400
Al557      Al  0.31910708  0.46342290  0.86416736     1.90100
O558        O  0.27443509  0.42623755  0.80947562    -0.74500
O559        O  0.31089594  0.33782240  0.84995819    -0.74300
O560        O  0.32336128  0.37622344  0.79401973    -0.80000
O561        O  0.36595225  0.34641909  0.84003416    -0.78200
O562        O  0.32890815  0.41698041  0.84695884    -1.14300
O563        O  0.37355125  0.39495815  0.88754030    -0.73500
C564        C  0.36140728  0.41839526  0.90768723     0.97200
C565        C  0.27697924  0.46307728  0.80940626     0.93600
Al566      Al  0.29555027  0.38557887  0.83097024     1.55600
O567        O  0.35697279  0.49297332  0.84876087    -0.78200
C568        C  0.34097458  0.32358721  0.84581079     0.97700
C569        C  0.25658859  0.42037105  0.88191829     0.92600
O570        O  0.27809594  0.44811365  0.88279616    -0.83500
O571        O  0.39391346  0.03038151  0.89150887    -0.82900
C572        C  0.37201727  0.08691760  0.78155094     0.96400
O573        O  0.35140387  0.07082049  0.80042344    -0.72100
O574        O  0.33586510  0.02666289  0.84804852    -0.75600
Al575      Al  0.35538732  0.07747501  0.84292852     1.49000
C576        C  0.34667750  0.99332149  0.84073962     0.91700
O577        O  0.44021684  0.00825033  0.81495530    -0.81900
O578        O  0.46494657  0.10074915  0.85600384    -0.75400
Al579      Al  0.41604672  0.02079802  0.85210232     1.90100
O580        O  0.45536827  0.06688801  0.80018354    -0.74500
O581        O  0.41059118  0.14688376  0.84651538    -0.74300
O582        O  0.39878482  0.10742510  0.78991821    -0.80000
O583        O  0.35595343  0.13309096  0.83888276    -0.78200
O584        O  0.40099683  0.06677371  0.83988960    -1.14300
O585        O  0.36066833  0.08356895  0.88534685    -0.73500
C586        C  0.37692393  0.05999199  0.90226596     0.97200
C587        C  0.45677673  0.03025295  0.79697564     0.93600
Al588      Al  0.42975149  0.10261331  0.82455400     1.55600
O589        O  0.37869923  0.98869876  0.83607141    -0.78200
C590        C  0.37936104  0.15801248  0.84472900     0.97700
C591        C  0.47489788  0.07121086  0.87040320     0.92600
O592        O  0.45726992  0.04003545  0.86949309    -0.83500
C593        C  0.33502462  0.25486549  0.86804919    -0.03000
C594        C  0.34818646  0.28028699  0.84568622     0.06700
C595        C  0.37111639  0.26457691  0.82330330    -0.03100
C596        C  0.38357584  0.22596642  0.82492329    -0.03100
C597        C  0.37011577  0.20042141  0.84677823     0.06800
C598        C  0.34493094  0.21475954  0.86784436    -0.03300
Br599      Br  0.32459392  0.17966985  0.89692283    -0.01800
Br600      Br  0.30444375  0.27467545  0.89952802    -0.01900
Br601      Br  0.41838693  0.20797573  0.79601003    -0.01900
Br602      Br  0.38251527  0.29403876  0.78784090    -0.01900
C603        C  0.41208833  0.40402198  0.97992813    -0.03000
C604        C  0.38543886  0.39144675  0.00002547     0.06700
C605        C  0.35162557  0.38328774  0.98826776    -0.03100
C606        C  0.34419386  0.39058871  0.95763513    -0.03100
C607        C  0.36914237  0.40999058  0.93957948     0.06800
C608        C  0.40332196  0.41609318  0.95064600    -0.03300
Br609      Br  0.43815547  0.44098562  0.92543152    -0.01800
Br610      Br  0.46088039  0.40078569  0.49012197    -0.01900
Br611      Br  0.30156797  0.37034749  0.93956062    -0.01900
Br612      Br  0.31646883  0.35873626  0.51324702    -0.01900
C613        C  0.33772296  0.41151871  0.69972464    -0.03000
C614        C  0.37223758  0.40940348  0.68856326     0.06700
C615        C  0.39850277  0.39408383  0.70708795    -0.03100
C616        C  0.39240289  0.38944082  0.73836814    -0.03100
C617        C  0.35808431  0.39414442  0.75052166     0.06800
C618        C  0.33033552  0.40211149  0.73008449    -0.03300
Br619      Br  0.28176523  0.39927270  0.74207581    -0.01800
Br620      Br  0.30028020  0.42608654  0.67285854    -0.01900
Br621      Br  0.43136235  0.37460852  0.76338478    -0.01900
Br622      Br  0.44010634  0.37241860  0.68839003    -0.01900
C623        C  0.38702438  0.11302734  0.97851915    -0.03000
C624        C  0.37714946  0.08331770  0.99846838     0.06700
C625        C  0.36904945  0.04539354  0.98675488    -0.03100
C626        C  0.36669399  0.03855431  0.95534752    -0.03100
C627        C  0.37700389  0.06793889  0.93532600     0.06800
C628        C  0.38887390  0.10466152  0.94712093    -0.03300
Br629      Br  0.41080394  0.14211686  0.92088087    -0.01800
Br630      Br  0.39921048  0.16451844  0.99438198    -0.01900
Br631      Br  0.34640154  0.99011022  0.93999870    -0.01900
Br632      Br  0.36076895  0.00229208  0.51319402    -0.01900
C633        C  0.37576331  0.03711824  0.70453417    -0.03000
C634        C  0.37028779  0.06895437  0.68532227     0.06700
C635        C  0.36262578  0.10634975  0.69828650    -0.03100
C636        C  0.36070161  0.11161135  0.72995828    -0.03100
C637        C  0.36664714  0.07989806  0.74889009     0.06800
C638        C  0.37330331  0.04237986  0.73612655    -0.03300
Br639      Br  0.38181218  0.99838458  0.76168587    -0.01800
Br640      Br  0.39044839  0.98707897  0.68808205    -0.01900
Br641      Br  0.34854000  0.16190746  0.74781063    -0.01900
Br642      Br  0.35386927  0.15076649  0.67336981    -0.01900
C643        C  0.41072187  0.21556685  0.60594011    -0.03000
C644        C  0.37492747  0.20314729  0.60529125     0.06700
C645        C  0.34895307  0.23193603  0.61129206    -0.03100
C646        C  0.35832451  0.27210518  0.61310817    -0.03100
C647        C  0.39303472  0.28455192  0.60634814     0.06800
C648        C  0.41961667  0.25585473  0.60490326    -0.03300
Br649      Br  0.46864739  0.27037326  0.60110122    -0.01800
Br650      Br  0.44834828  0.17848651  0.61102205    -0.01900
Br651      Br  0.32386747  0.30955795  0.62763885    -0.01900
Br652      Br  0.30017252  0.21804158  0.61805490    -0.01900
C653        C  0.19069920  0.41633744  0.88733628    -0.03000
C654        C  0.22365604  0.42646596  0.89998283     0.06700
C655        C  0.22439723  0.45400209  0.92468730    -0.03100
C656        C  0.19491742  0.47722530  0.93137099    -0.03100
C657        C  0.16442287  0.47316740  0.91369692     0.06800
C658        C  0.16118132  0.44010541  0.89373156    -0.03300
Br659      Br  0.11762468  0.42873286  0.87294472    -0.01800
Br660      Br  0.18609189  0.37153668  0.86006460    -0.01900
Br661      Br  0.19634216  0.51500719  0.96466782    -0.01900
Br662      Br  0.26645919  0.46270661  0.94834668    -0.01900
C663        C  0.41335461  0.55097126  0.86772272    -0.03000
C664        C  0.41584981  0.51695538  0.84873732     0.06700
C665        C  0.44628145  0.51163196  0.83113783    -0.03100
C666        C  0.47628645  0.53487321  0.83692360    -0.03100
C667        C  0.47589521  0.56446897  0.86025736     0.06800
C668        C  0.44301591  0.57574954  0.87217795    -0.03300
Br669      Br  0.43850330  0.62464712  0.89459690    -0.01800
Br670      Br  0.37106541  0.56186255  0.89041330    -0.01900
Br671      Br  0.01863071  0.52236197  0.81410956    -0.01900
Br672      Br  0.44715248  0.47166443  0.79939160    -0.01900
C673        C  0.46030039  0.50488566  0.01216128    -0.03000
C674        C  0.48157189  0.48375248  0.53198229     0.06700
C675        C  0.01646284  0.47524622  0.52385808    -0.03100
C676        C  0.03008783  0.48712247  0.49588289    -0.03100
C677        C  0.00929543  0.50906593  0.97620092     0.06800
C678        C  0.47430784  0.51815905  0.98459195    -0.03300
Br679      Br  0.44548401  0.54848784  0.95808132    -0.01800
Br680      Br  0.41153747  0.51397697  0.02184626    -0.01900
Br681      Br  0.07822683  0.47543076  0.48549138    -0.01900
Br682      Br  0.04635021  0.44867848  0.55161421    -0.01900
C683        C  0.08229529  0.73517269  0.89193728    -0.03000
C684        C  0.10166759  0.71075832  0.91128064     0.06700
C685        C  0.12995208  0.72792147  0.92799774    -0.03100
C686        C  0.14040178  0.76712513  0.92374314    -0.03100
C687        C  0.12105531  0.79138175  0.90464091     0.06800
C688        C  0.09147709  0.77538951  0.88924151    -0.03300
Br689      Br  0.06388612  0.80838526  0.86364074    -0.01800
Br690      Br  0.04342504  0.71426976  0.86846508    -0.01900
Br691      Br  0.18038961  0.78779637  0.94614886    -0.01900
Br692      Br  0.15274975  0.70007775  0.95985913    -0.01900
C693        C  0.07220915  0.06012515  0.88057823    -0.03000
C694        C  0.07105670  0.03050822  0.90238091     0.06700
C695        C  0.04082688  0.02672109  0.92045925    -0.03100
C696        C  0.01021081  0.04721342  0.91328943    -0.03100
C697        C  0.00894657  0.06967325  0.88677336     0.06800
C698        C  0.04077764  0.07835323  0.87164254    -0.03300
Br699      Br  0.04084398  0.10984282  0.83589080    -0.01800
Br700      Br  0.11631607  0.07452563  0.86231791    -0.01900
Br701      Br  0.96871991  0.04084963  0.93793714    -0.01900
Br702      Br  0.04100764  0.99194816  0.95429132    -0.01900
C703        C  0.26015570  0.94243785  0.82994039    -0.03000
C704        C  0.25872156  0.92221317  0.85752869     0.06700
C705        C  0.29037711  0.91510857  0.87303264    -0.03100
C706        C  0.32202441  0.93227114  0.86288365    -0.03100
C707        C  0.32126309  0.96009703  0.83980878     0.06800
C708        C  0.29104555  0.96247923  0.82167711    -0.03300
Br709      Br  0.29142579  0.99490246  0.78648485    -0.01800
Br710      Br  0.21852872  0.94666677  0.80540324    -0.01900
Br711      Br  0.36592091  0.91999502  0.88183967    -0.01900
Br712      Br  0.28989953  0.88880929  0.91125284    -0.01900
C713        C  0.24451084  0.01935101  0.96951583    -0.03000
C714        C  0.22699238  0.98297622  0.97278145     0.06700
C715        C  0.22965259  0.96347632  0.00088748    -0.03100
C716        C  0.24817613  0.98093695  0.52534066    -0.03100
C717        C  0.26653237  0.01664982  0.52178557     0.06800
C718        C  0.26378255  0.03631097  0.49378298    -0.03300
Br719      Br  0.28586060  0.08687688  0.48748934    -0.01800
Br720      Br  0.24515764  0.04511027  0.93081019    -0.01900
Br721      Br  0.24466108  0.95750184  0.56488345    -0.01900
Br722      Br  0.20889009  0.91225532  0.00714682    -0.01900
C723        C  0.99863619  0.01442364  0.71866697    -0.03000
C724        C  0.01740030  0.97948662  0.72279624     0.06700
C725        C  0.51557809  0.96101012  0.75138978    -0.03100
C726        C  0.49757043  0.97892205  0.77584883    -0.03100
C727        C  0.47813816  0.01335413  0.77157091     0.06800
C728        C  0.97967429  0.03166543  0.74290994    -0.03300
Br729      Br  0.95655190  0.08079952  0.73581900    -0.01800
Br730      Br  0.99547141  0.03678011  0.67880214    -0.01900
Br731      Br  0.50343047  0.95852500  0.81610926    -0.01900
Br732      Br  0.53639269  0.91042106  0.75791041    -0.01900
C733        C  0.12527479  0.95155812  0.50923370    -0.03000
C734        C  0.11625037  0.91470012  0.49627531     0.06700
C735        C  0.10709169  0.88343893  0.51495236    -0.03100
C736        C  0.10756062  0.88880416  0.54666147    -0.03100
C737        C  0.11942382  0.92484925  0.55969798     0.06800
C738        C  0.12880746  0.95590425  0.54075223    -0.03300
Br739      Br  0.15038092  0.00282329  0.55746757    -0.01800
Br740      Br  0.13341823  0.99628333  0.98404391    -0.01900
Br741      Br  0.09027309  0.84728284  0.57173776    -0.01900
Br742      Br  0.09275188  0.83388579  0.49667377    -0.01900
C743        C  0.13592712  0.88398815  0.79697403    -0.03000
C744        C  0.12627877  0.92100254  0.80951879     0.06700
C745        C  0.11805629  0.95172360  0.79016324    -0.03100
C746        C  0.12045947  0.94615110  0.75869918    -0.03100
C747        C  0.12734048  0.90862265  0.74614325     0.06800
C748        C  0.13556398  0.87761079  0.76526081    -0.03300
Br749      Br  0.14835833  0.82739632  0.74765938    -0.01800
Br750      Br  0.15149892  0.84264103  0.82271252    -0.01900
Br751      Br  0.11350030  0.99030445  0.73309613    -0.01900
Br752      Br  0.10003435  0.00046094  0.80649983    -0.01900
C753        C  0.45507931  0.96886896  0.57168140    -0.03000
C754        C  0.42423424  0.96474248  0.58893676     0.06700
C755        C  0.42272766  0.93526580  0.61078751    -0.03100
C756        C  0.45398925  0.91732068  0.62054036    -0.03100
C757        C  0.48639835  0.92639646  0.60643835     0.06800
C758        C  0.48593433  0.94943984  0.58009821    -0.03300
Br759      Br  0.02834599  0.95738886  0.55685977    -0.01800
Br760      Br  0.45491118  0.00198517  0.53681789    -0.01900
Br761      Br  0.45264203  0.88560185  0.65610433    -0.01900
Br762      Br  0.37808925  0.92077076  0.62800201    -0.01900
C763        C  0.20501412  0.07708792  0.62328608    -0.03000
C764        C  0.23701955  0.07077555  0.63843604     0.06700
C765        C  0.23640616  0.04932401  0.66542369    -0.03100
C766        C  0.20685606  0.02617629  0.67254547    -0.03100
C767        C  0.17623397  0.02838816  0.65486950     0.06800
C768        C  0.17413714  0.05773714  0.63293459    -0.03300
Br769      Br  0.12959799  0.06972804  0.61496264    -0.01800
Br770      Br  0.20409229  0.10657934  0.58654362    -0.01900
Br771      Br  0.20897401  0.99017701  0.70552325    -0.01900
Br772      Br  0.27736276  0.04927331  0.69100806    -0.01900
C773        C  0.21114610  0.49086074  0.74946666    -0.03000
C774        C  0.23311179  0.50927635  0.72816708     0.06700
C775        C  0.26908926  0.51454664  0.73477712    -0.03100
C776        C  0.28294931  0.50222843  0.76252438    -0.03100
C777        C  0.26106719  0.48343793  0.78363601     0.06800
C778        C  0.22513713  0.47783768  0.77698908    -0.03300
Br779      Br  0.19480374  0.45359849  0.80627974    -0.01800
Br780      Br  0.16146232  0.48536156  0.74178339    -0.01900
Br781      Br  0.33239715  0.50932927  0.77086835    -0.01900
Br782      Br  0.29986861  0.53672872  0.70502257    -0.01900
C783        C  0.08212481  0.58895387  0.53118268    -0.03000
C784        C  0.10936779  0.59873069  0.51055082     0.06700
C785        C  0.14394752  0.60371294  0.52204581    -0.03100
C786        C  0.15079611  0.59830261  0.55300870    -0.03100
C787        C  0.12479490  0.58245337  0.57185855     0.06800
C788        C  0.09024650  0.57860187  0.56110520    -0.03300
Br789      Br  0.05405300  0.55892345  0.58768294    -0.01800
Br790      Br  0.03340335  0.59047156  0.51998360    -0.01900
Br791      Br  0.19421878  0.61732090  0.57049746    -0.01900
Br792      Br  0.18258871  0.61923372  0.99643807    -0.01900
C793        C  0.10304440  0.60221592  0.77243440    -0.03000
C794        C  0.13740585  0.59800992  0.76047250     0.06700
C795        C  0.16519806  0.59004422  0.78083495    -0.03100
C796        C  0.15774150  0.57999057  0.81102189    -0.03100
C797        C  0.12311195  0.58154840  0.82198356     0.06800
C798        C  0.09667714  0.59646878  0.80345788    -0.03300
Br799      Br  0.05378463  0.61520897  0.82169003    -0.01800
Br800      Br  0.06454719  0.61845860  0.74745548    -0.01900
Br801      Br  0.19511938  0.56505614  0.83784917    -0.01900
Br802      Br  0.21379083  0.59428520  0.76906573    -0.01900
C803        C  0.11867066  0.72810448  0.68035087    -0.03000
C804        C  0.14445058  0.71075221  0.66119334     0.06700
C805        C  0.15950009  0.73379416  0.63817154    -0.03100
C806        C  0.14854355  0.77302547  0.63432198    -0.03100
C807        C  0.12111735  0.78907768  0.65226858     0.06800
C808        C  0.10592135  0.76596935  0.67498377    -0.03300
Br809      Br  0.06875151  0.78665800  0.70043161    -0.01800
Br810      Br  0.10343274  0.70246335  0.71668900    -0.01900
Br811      Br  0.17088660  0.80465705  0.60397725    -0.01900
Br812      Br  0.19483048  0.71212745  0.61150432    -0.01900
C813        C  0.30341176  0.57449624  0.62646658    -0.03000
C814        C  0.27112856  0.56556931  0.61210160     0.06700
C815        C  0.27134117  0.53901778  0.58665254    -0.03100
C816        C  0.30183602  0.51805926  0.57911863    -0.03100
C817        C  0.33065816  0.51965154  0.59872256     0.06800
C818        C  0.33249286  0.54982720  0.62127177    -0.03300
Br819      Br  0.37264103  0.55474639  0.64777949    -0.01800
Br820      Br  0.30734795  0.61794477  0.65514987    -0.01900
Br821      Br  0.30447056  0.48661774  0.54217262    -0.01900
Br822      Br  0.22942720  0.52639337  0.56381048    -0.01900
C823        C  0.05207036  0.41917836  0.63341290    -0.03000
C824        C  0.01973728  0.42758268  0.64771078     0.06700
C825        C  0.01962340  0.45462857  0.67272191    -0.03100
C826        C  0.04921436  0.47825935  0.67894849    -0.03100
C827        C  0.07900018  0.47546374  0.66025207     0.06800
C828        C  0.08112897  0.44449866  0.63838553    -0.03300
Br829      Br  0.12134492  0.44001492  0.61182977    -0.01800
Br830      Br  0.05636149  0.37461963  0.60587616    -0.01900
Br831      Br  0.04813203  0.51628033  0.71211130    -0.01900
Br832      Br  0.47803096  0.46298138  0.69692864    -0.01900
O833        O  0.71673862  0.54359335  0.12891089    -0.82900
C834        C  0.64366665  0.59998046  0.22706544     0.96400
O835        O  0.67148508  0.61641302  0.21691548    -0.72100
O836        O  0.72043114  0.56633754  0.20154338    -0.75600
Al837      Al  0.69883813  0.60685113  0.17991051     1.49000
C838        C  0.71738336  0.52950987  0.20216430     0.91700
O839        O  0.63752373  0.49933670  0.16211134    -0.81900
O840        O  0.62038713  0.59711462  0.12406245    -0.75400
Al841      Al  0.67542812  0.52885644  0.14724454     1.90100
O842        O  0.59675392  0.54220209  0.16097946    -0.74500
O843        O  0.62809775  0.64539756  0.17156026    -0.74300
O844        O  0.62132518  0.58423787  0.20902158    -0.80000
O845        O  0.68282890  0.65400434  0.16061278    -0.78200
O846        O  0.66554224  0.57521598  0.16431975    -1.14300
O847        O  0.73206682  0.60104104  0.14670809    -0.73500
C848        C  0.73781257  0.57168405  0.12944090     0.97200
C849        C  0.60583250  0.50717767  0.16154606     0.93600
Al850      Al  0.62103700  0.59065715  0.16633346     1.55600
O851        O  0.69986058  0.51065301  0.18219982    -0.78200
C852        C  0.65261035  0.66805431  0.16437811     0.97700
C853        C  0.63272542  0.57396642  0.10378976     0.92600
O854        O  0.65142947  0.54413209  0.11019116    -0.83500
O855        O  0.53860911  0.95359575  0.12508730    -0.82900
C856        C  0.62170957  0.90173473  0.21348131     0.96400
O857        O  0.59384859  0.88315289  0.20499320    -0.72100
O858        O  0.53841570  0.92558762  0.19368496    -0.75600
Al859      Al  0.56361857  0.88914839  0.16969562     1.49000
C860        C  0.53847431  0.96217438  0.19745693     0.91700
O861        O  0.61849768  0.00105743  0.15957699    -0.81900
O862        O  0.63420894  0.90639609  0.10958892    -0.75400
Al863      Al  0.58036302  0.97076195  0.14308545     1.90100
O864        O  0.66034120  0.96185315  0.14742605    -0.74500
O865        O  0.63669984  0.85627404  0.15624295    -0.74300
O866        O  0.64288184  0.91726199  0.19473611    -0.80000
O867        O  0.58190856  0.84380861  0.14836773    -0.78200
O868        O  0.59380461  0.92398721  0.15495396    -1.14300
O869        O  0.52917766  0.89269175  0.13737019    -0.73500
C870        C  0.52016482  0.92303717  0.12334925     0.97200
C871        C  0.65033765  0.99559967  0.15456199     0.93600
Al872      Al  0.63911600  0.91161032  0.15217624     1.55600
O873        O  0.55629639  0.98375494  0.18009870    -0.78200
C874        C  0.61272933  0.83176620  0.15136887     0.97700
C875        C  0.61908214  0.93123551  0.09292150     0.92600
O876        O  0.60265519  0.96101100  0.10399562    -0.83500
O877        O  0.64459524  0.95891313  0.35262203    -0.82900
C878        C  0.62199368  0.90770747  0.46380162     0.96400
O879        O  0.60164365  0.92310699  0.44463000    -0.72100
O880        O  0.58621107  0.96400531  0.39497317    -0.75600
Al881      Al  0.60566240  0.91395318  0.40236770     1.49000
C882        C  0.59683199  0.99793360  0.40143359     0.91700
O883        O  0.68977859  0.98607987  0.42875550    -0.81900
O884        O  0.71467666  0.89217916  0.38920334    -0.75400
Al885      Al  0.66630752  0.97136008  0.39161493     1.90100
O886        O  0.70559384  0.92841580  0.44419240    -0.74500
O887        O  0.66057130  0.84618099  0.39998273    -0.74300
O888        O  0.64885897  0.88752353  0.45586367    -0.80000
O889        O  0.60631874  0.85875502  0.40911902    -0.78200
O890        O  0.65119278  0.92581092  0.40495913    -1.14300
O891        O  0.61119657  0.90530218  0.36012439    -0.73500
C892        C  0.62736031  0.92869221  0.34259515     0.97200
C893        C  0.70640909  0.96510781  0.44713704     0.93600
Al894      Al  0.67984035  0.89130632  0.42090277     1.55600
O895        O  0.62872472  0.00340614  0.40645643    -0.78200
C896        C  0.62974274  0.83410623  0.40383021     0.97700
C897        C  0.72496207  0.92126252  0.37424954     0.92600
O898        O  0.70785562  0.95244127  0.37478506    -0.83500
O899        O  0.59613411  0.54285233  0.36022019    -0.82900
C900        C  0.60261114  0.60038568  0.47717096     0.96400
O901        O  0.62461918  0.58465537  0.45909177    -0.72100
O902        O  0.64861425  0.54059898  0.41255111    -0.75600
Al903      Al  0.62546214  0.59001251  0.41645368     1.49000
C904        C  0.63843456  0.50563733  0.41353943     0.91700
O905        O  0.54297995  0.51055966  0.43037358    -0.81900
O906        O  0.51341710  0.59975503  0.39704154    -0.75400
Al907      Al  0.57010644  0.52852252  0.39665132     1.90100
O908        O  0.52561577  0.56613595  0.45151004    -0.74500
O909        O  0.56363702  0.65314950  0.41073026    -0.74300
O910        O  0.57482045  0.61630154  0.46708207    -0.80000
O911        O  0.61856289  0.64500524  0.42034865    -0.78200
O912        O  0.58053255  0.57471546  0.41419095    -1.14300
O913        O  0.62749759  0.59579736  0.37424636    -0.73500
C914        C  0.61529642  0.57267794  0.35390034     0.97200
C915        C  0.52631645  0.52931424  0.45079954     0.93600
Al916      Al  0.54736067  0.60621025  0.42999448     1.55600
O917        O  0.60643197  0.49850303  0.41304321    -0.78200
C918        C  0.59396696  0.66754935  0.41401198     0.97700
C919        C  0.00866747  0.57125017  0.37845835     0.92600
O920        O  0.53061024  0.54447670  0.37712196    -0.83500
O921        O  0.78847466  0.04225565  0.12078688    -0.82900
C922        C  0.87261136  0.09141741  0.03125926     0.96400
O923        O  0.84646561  0.11215396  0.04022377    -0.72100
O924        O  0.78998479  0.07011381  0.05055790    -0.75600
Al925      Al  0.81545579  0.10557452  0.07529424     1.49000
C926        C  0.78792165  0.03350366  0.04740438     0.91700
O927        O  0.86626865  0.99200436  0.08565084    -0.81900
O928        O  0.88556488  0.08664480  0.13506740    -0.75400
Al929      Al  0.82914578  0.02367235  0.10227006     1.90100
O930        O  0.90932430  0.03091721  0.09677131    -0.74500
O931        O  0.88843388  0.13724939  0.08865325    -0.74300
O932        O  0.89319258  0.07536825  0.04982309    -0.80000
O933        O  0.83454910  0.14854049  0.09869904    -0.78200
O934        O  0.84419320  0.06986877  0.08996973    -1.14300
O935        O  0.78019233  0.10238271  0.10666104    -0.73500
C936        C  0.77074156  0.07297984  0.12164950     0.97200
C937        C  0.89840474  0.99721673  0.08999654     0.93600
Al938      Al  0.88983479  0.08145590  0.09234438     1.55600
O939        O  0.80407215  0.01149349  0.06541185    -0.78200
C940        C  0.86559655  0.16088956  0.09754361     0.97700
C941        C  0.86963672  0.06238172  0.15203666     0.92600
O942        O  0.85202904  0.03304098  0.14113879    -0.83500
O943        O  0.96507163  0.44871286  0.13219416    -0.82900
C944        C  0.89155706  0.39105139  0.03335077     0.96400
O945        O  0.91868795  0.37457864  0.04396687    -0.72100
O946        O  0.96685150  0.42664986  0.05745934    -0.75600
Al947      Al  0.94639526  0.38673581  0.08034503     1.49000
C948        C  0.96548623  0.46358459  0.05790907     0.91700
O949        O  0.88798906  0.49442299  0.09950476    -0.81900
O950        O  0.86670581  0.39718453  0.13600302    -0.75400
Al951      Al  0.92462088  0.46406644  0.11382137     1.90100
O952        O  0.84579816  0.45223822  0.09731180    -0.74500
O953        O  0.87596274  0.34741948  0.08940684    -0.74300
O954        O  0.86967803  0.40802747  0.05088645    -0.80000
O955        O  0.93029588  0.34208414  0.10222725    -0.78200
O956        O  0.91361010  0.41837166  0.09596476    -1.14300
O957        O  0.98118261  0.39355224  0.11187246    -0.73500
C958        C  0.98656721  0.42163901  0.13033472     0.97200
C959        C  0.85614361  0.48717912  0.09802641     0.93600
Al960      Al  0.86873421  0.40285975  0.09354635     1.55600
O961        O  0.94989154  0.48243113  0.07900750    -0.78200
C962        C  0.90027324  0.32680937  0.09940920     0.97700
C963        C  0.88006616  0.41905560  0.15668794     0.92600
O964        O  0.90005406  0.44838925  0.15070150    -0.83500
O965        O  0.84335216  0.44849297  0.40112321    -0.82900
C966        C  0.85146536  0.39217901  0.28409657     0.96400
O967        O  0.87376409  0.40742782  0.30242150    -0.72100
O968        O  0.89769618  0.44999423  0.35049697    -0.75600
Al969      Al  0.87336217  0.40120055  0.34527549     1.49000
C970        C  0.88872527  0.48508340  0.34908549     0.91700
O971        O  0.79416810  0.48166128  0.32965480    -0.81900
O972        O  0.76174874  0.39139889  0.36402119    -0.75400
Al973      Al  0.81909892  0.46332960  0.36418807     1.90100
O974        O  0.77440390  0.42616614  0.30948822    -0.74500
O975        O  0.81082753  0.33771791  0.34998087    -0.74300
O976        O  0.82331750  0.37612567  0.29403610    -0.80000
O977        O  0.86588955  0.34630422  0.34007693    -0.78200
O978        O  0.82887431  0.41687786  0.34698202    -1.14300
O979        O  0.87350936  0.39483700  0.38756499    -0.73500
C980        C  0.86140057  0.41830410  0.40770485     0.97200
C981        C  0.77694256  0.46300724  0.30943793     0.93600
Al982      Al  0.79550498  0.38549327  0.33098669     1.55600
O983        O  0.85697167  0.49285220  0.34874233    -0.78200
C984        C  0.84090952  0.32347836  0.34585615     0.97700
C985        C  0.75656657  0.42030019  0.38194331     0.92600
O986        O  0.77809764  0.44802194  0.38284090    -0.83500
O987        O  0.89399593  0.03028123  0.39154619    -0.82900
C988        C  0.87202604  0.08688106  0.28160375     0.96400
O989        O  0.85143628  0.07076315  0.30048257    -0.72100
O990        O  0.83595566  0.02656992  0.34809394    -0.75600
Al991      Al  0.85544593  0.07739437  0.34298771     1.49000
C992        C  0.84678323  0.99323218  0.34079361     0.91700
O993        O  0.94029398  0.00820806  0.31498450    -0.81900
O994        O  0.96504382  0.10067423  0.35597930    -0.75400
Al995      Al  0.91613024  0.02073445  0.35213416     1.90100
O996        O  0.95536951  0.06684475  0.30015897    -0.74500
O997        O  0.91065308  0.14681223  0.34658171    -0.74300
O998        O  0.89878351  0.10740678  0.28996650    -0.80000
O999        O  0.85600828  0.13301753  0.33897432    -0.78200
O1000       O  0.90105875  0.06670816  0.33992781    -1.14300
O1001       O  0.86073385  0.08345858  0.38540157    -0.73500
C1002       C  0.87698314  0.05986829  0.40231148     0.97200
C1003       C  0.95680415  0.03020946  0.29697103     0.93600
Al1004     Al  0.92979301  0.10255987  0.32457348     1.55600
O1005       O  0.87880136  0.98862315  0.33610847    -0.78200
C1006       C  0.87941764  0.15793790  0.34482422     0.97700
C1007       C  0.97498820  0.07114640  0.37039514     0.92600
O1008       O  0.95734239  0.03998512  0.36951933    -0.83500
C1009       C  0.83502463  0.25476677  0.36814307    -0.03000
C1010       C  0.84813631  0.28017970  0.34575152     0.06700
C1011       C  0.87107554  0.26447824  0.32337271    -0.03100
C1012       C  0.88357284  0.22588568  0.32500573    -0.03100
C1013       C  0.87016491  0.20034672  0.34688662     0.06800
C1014       C  0.84500195  0.21468103  0.36797554    -0.03300
Br1015     Br  0.82482469  0.17962162  0.39715564    -0.01800
Br1016     Br  0.80439886  0.27455708  0.39959636    -0.01900
Br1017     Br  0.91838003  0.20791530  0.29608292    -0.01900
Br1018     Br  0.88245385  0.29393587  0.28790341    -0.01900
C1019       C  0.91206931  0.40400323  0.47996173    -0.03000
C1020       C  0.88541368  0.39141881  0.50005085     0.06700
C1021       C  0.85162407  0.38318827  0.48827617    -0.03100
C1022       C  0.84419378  0.39049704  0.45764561    -0.03100
C1023       C  0.86913869  0.40991150  0.43959562     0.06800
C1024       C  0.90331800  0.41601910  0.45066186    -0.03300
Br1025     Br  0.93818174  0.44080083  0.42541013    -0.01800
Br1026     Br  0.96083496  0.40086968  0.99014887    -0.01900
Br1027     Br  0.80157631  0.37025024  0.43956027    -0.01900
Br1028     Br  0.81649239  0.35860101  0.01326371    -0.01900
C1029       C  0.83771371  0.41155581  0.19976669    -0.03000
C1030       C  0.87223186  0.40945249  0.18860910     0.06700
C1031       C  0.89849651  0.39412314  0.20713040    -0.03100
C1032       C  0.89237581  0.38939697  0.23839931    -0.03100
C1033       C  0.85805309  0.39408025  0.25054829     0.06800
C1034       C  0.83031475  0.40210150  0.23011543    -0.03300
Br1035     Br  0.78174143  0.39928067  0.24209905    -0.01800
Br1036     Br  0.80028144  0.42619639  0.17291431    -0.01900
Br1037     Br  0.93131044  0.37446201  0.26340563    -0.01900
Br1038     Br  0.94016092  0.37260173  0.18843767    -0.01900
C1039       C  0.88708649  0.11280912  0.47858794    -0.03000
C1040       C  0.87711355  0.08311298  0.49851206     0.06700
C1041       C  0.86893552  0.04522004  0.48677793    -0.03100
C1042       C  0.86660261  0.03841618  0.45536583    -0.03100
C1043       C  0.87702916  0.06778153  0.43537098     0.06800
C1044       C  0.88895911  0.10446413  0.44719041    -0.03300
Br1045     Br  0.91096815  0.14189805  0.42097979    -0.01800
Br1046     Br  0.89937255  0.16425044  0.49449008    -0.01900
Br1047     Br  0.84616312  0.99007571  0.43997144    -0.01900
Br1048     Br  0.86060545  0.00209714  0.01320716    -0.01900
C1049       C  0.87572924  0.03704252  0.20459473    -0.03000
C1050       C  0.87027336  0.06887348  0.18537415     0.06700
C1051       C  0.86263295  0.10628118  0.19832822    -0.03100
C1052       C  0.86070158  0.11155591  0.23000030    -0.03100
C1053       C  0.86664710  0.07985121  0.24894223     0.06800
C1054       C  0.87329154  0.04232472  0.23618667    -0.03300
Br1055     Br  0.88183499  0.99834594  0.26175289    -0.01800
Br1056     Br  0.89035463  0.98697414  0.18815240    -0.01900
Br1057     Br  0.84852354  0.16185455  0.24783892    -0.01900
Br1058     Br  0.85392520  0.15069714  0.17339410    -0.01900
C1059       C  0.91093824  0.21553758  0.10537483    -0.03000
C1060       C  0.87514052  0.20307065  0.10509646     0.06700
C1061       C  0.84920575  0.23184431  0.11131504    -0.03100
C1062       C  0.85857738  0.27201083  0.11318949    -0.03100
C1063       C  0.89319443  0.28451360  0.10617612     0.06800
C1064       C  0.91976795  0.25584046  0.10430878    -0.03300
Br1065     Br  0.96869959  0.27042375  0.09976737    -0.01800
Br1066     Br  0.94873663  0.17852770  0.10988729    -0.01900
Br1067     Br  0.82428189  0.30939456  0.12812360    -0.01900
Br1068     Br  0.80044812  0.21796533  0.11822306    -0.01900
C1069       C  0.69067396  0.41631400  0.38733069    -0.03000
C1070       C  0.72362754  0.42641492  0.39999458     0.06700
C1071       C  0.72437175  0.45396466  0.42468729    -0.03100
C1072       C  0.69491650  0.47724348  0.43133121    -0.03100
C1073       C  0.66442093  0.47318949  0.41365359     0.06800
C1074       C  0.66117099  0.44011825  0.39369512    -0.03300
Br1075     Br  0.61763820  0.42879242  0.37285408    -0.01800
Br1076     Br  0.68605192  0.37148735  0.36008500    -0.01900
Br1077     Br  0.69640332  0.51512362  0.46456143    -0.01900
Br1078     Br  0.76641255  0.46259415  0.44838849    -0.01900
C1079       C  0.91338124  0.55085261  0.36763823    -0.03000
C1080       C  0.91587274  0.51678696  0.34870603     0.06700
C1081       C  0.94633263  0.51137833  0.33115469    -0.03100
C1082       C  0.97634482  0.53460965  0.33693236    -0.03100
C1083       C  0.97593966  0.56427338  0.36021526     0.06800
C1084       C  0.94305435  0.57561586  0.37208166    -0.03300
Br1085     Br  0.93855396  0.62457786  0.39441336    -0.01800
Br1086     Br  0.87108822  0.56182236  0.39029855    -0.01900
Br1087     Br  0.51858929  0.52253530  0.31412602    -0.01900
Br1088     Br  0.94725253  0.47128614  0.29950335    -0.01900
C1089       C  0.96031679  0.50496302  0.51221115    -0.03000
C1090       C  0.98150518  0.48381292  0.03198419     0.06700
C1091       C  0.51646571  0.47517201  0.02375270    -0.03100
C1092       C  0.53006348  0.48708761  0.99578041    -0.03100
C1093       C  0.50933878  0.50910562  0.47621851     0.06800
C1094       C  0.97433801  0.51815984  0.48462214    -0.03300
Br1095     Br  0.94551181  0.54836544  0.45802754    -0.01800
Br1096     Br  0.91156856  0.51414476  0.52189545    -0.01900
Br1097     Br  0.57819522  0.47541217  0.98534552    -0.01900
Br1098     Br  0.54639747  0.44860350  0.05147015    -0.01900
C1099       C  0.58248044  0.73514706  0.39185816    -0.03000
C1100       C  0.60175486  0.71075876  0.41128897     0.06700
C1101       C  0.62999505  0.72791464  0.42806016    -0.03100
C1102       C  0.64051296  0.76708442  0.42377188    -0.03100
C1103       C  0.62121307  0.79134130  0.40463694     0.06800
C1104       C  0.59167785  0.77535691  0.38917422    -0.03300
Br1105     Br  0.56417835  0.80835156  0.36350096    -0.01800
Br1106     Br  0.54374460  0.71420910  0.36824162    -0.01900
Br1107     Br  0.68054361  0.78769548  0.44614994    -0.01900
Br1108     Br  0.65259950  0.70012397  0.46005010    -0.01900
C1109       C  0.57220563  0.05999871  0.38050561    -0.03000
C1110       C  0.57106043  0.03039908  0.40232323     0.06700
C1111       C  0.54082651  0.02660506  0.42039459    -0.03100
C1112       C  0.51019845  0.04706470  0.41320738    -0.03100
C1113       C  0.50894050  0.06954960  0.38670206     0.06800
C1114       C  0.54077277  0.07822617  0.37156998    -0.03300
Br1115     Br  0.54083952  0.10970927  0.33581323    -0.01800
Br1116     Br  0.61630740  0.07438294  0.36222664    -0.01900
Br1117     Br  0.46868599  0.04060595  0.43781708    -0.01900
Br1118     Br  0.54102744  0.99187862  0.45425531    -0.01900
C1119       C  0.76026583  0.94239382  0.33006559    -0.03000
C1120       C  0.75883581  0.92220656  0.35767035     0.06700
C1121       C  0.79049114  0.91510428  0.37317663    -0.03100
C1122       C  0.82214346  0.93222971  0.36300376    -0.03100
C1123       C  0.82138821  0.95999902  0.33988821     0.06800
C1124       C  0.79117023  0.96236763  0.32176046    -0.03300
Br1125     Br  0.79156668  0.99470928  0.28652390    -0.01800
Br1126     Br  0.71861607  0.94670428  0.30556761    -0.01900
Br1127     Br  0.86603893  0.91999903  0.38198536    -0.01900
Br1128     Br  0.79000893  0.88886750  0.41142475    -0.01900
C1129       C  0.74435674  0.01942551  0.46968752    -0.03000
C1130       C  0.72692082  0.98299378  0.47291203     0.06700
C1131       C  0.72963513  0.96344154  0.50099437    -0.03100
C1132       C  0.74793405  0.98111560  0.02547735    -0.03100
C1133       C  0.76642432  0.01672930  0.02188341     0.06800
C1134       C  0.76376586  0.03635397  0.99385926    -0.03300
Br1135     Br  0.78600126  0.08682461  0.98753164    -0.01800
Br1136     Br  0.74485672  0.04533145  0.43104074    -0.01900
Br1137     Br  0.74424425  0.95783602  0.06506601    -0.01900
Br1138     Br  0.70897716  0.91215549  0.50720985    -0.01900
C1139       C  0.49860178  0.01434448  0.21867437    -0.03000
C1140       C  0.51741629  0.97945462  0.22284725     0.06700
C1141       C  0.01551184  0.96091695  0.25134041    -0.03100
C1142       C  0.99755479  0.97885599  0.27581516    -0.03100
C1143       C  0.97812932  0.01329627  0.27154880     0.06800
C1144       C  0.47963275  0.03160636  0.24289851    -0.03300
Br1145     Br  0.45653026  0.08074213  0.23577598    -0.01800
Br1146     Br  0.49536526  0.03658956  0.17877480    -0.01900
Br1147     Br  0.00348356  0.95848242  0.31607591    -0.01900
Br1148     Br  0.03629518  0.91030806  0.25784786    -0.01900
C1149       C  0.62507536  0.95174850  0.00925680    -0.03000
C1150       C  0.61609023  0.91488149  0.99629359     0.06700
C1151       C  0.60700815  0.88358911  0.01496450    -0.03100
C1152       C  0.60751518  0.88892815  0.04667370    -0.03100
C1153       C  0.61934555  0.92498388  0.05971567     0.06800
C1154       C  0.62864270  0.95607638  0.04077395    -0.03300
Br1155     Br  0.65017835  0.00301755  0.05748357    -0.01800
Br1156     Br  0.63335509  0.99629668  0.48407067    -0.01900
Br1157     Br  0.59032691  0.84734744  0.07173846    -0.01900
Br1158     Br  0.59276160  0.83400814  0.99667385    -0.01900
C1159       C  0.63605887  0.88389278  0.29698924    -0.03000
C1160       C  0.62640078  0.92089642  0.30954851     0.06700
C1161       C  0.61813528  0.95160998  0.29020196    -0.03100
C1162       C  0.62055114  0.94606490  0.25873625    -0.03100
C1163       C  0.62744287  0.90854968  0.24616186     0.06800
C1164       C  0.63567113  0.87752552  0.26527145    -0.03300
Br1165     Br  0.64842036  0.82730333  0.24765796    -0.01800
Br1166     Br  0.65165669  0.84254575  0.32271661    -0.01900
Br1167     Br  0.61356953  0.99023496  0.23315501    -0.01900
Br1168     Br  0.59998518  0.00027348  0.30655227    -0.01900
C1169       C  0.95490053  0.96862335  0.07162573    -0.03000
C1170       C  0.92408687  0.96452784  0.08892742     0.06700
C1171       C  0.92261730  0.93508849  0.11080561    -0.03100
C1172       C  0.95389555  0.91716594  0.12053933    -0.03100
C1173       C  0.98628410  0.92624650  0.10640311     0.06800
C1174       C  0.98578049  0.94924359  0.08004129    -0.03300
Br1175     Br  0.52835000  0.95711395  0.05684330    -0.01800
Br1176     Br  0.95465260  0.00162344  0.03669958    -0.01900
Br1177     Br  0.95259969  0.88548285  0.15612368    -0.01900
Br1178     Br  0.87800346  0.92062459  0.12808034    -0.01900
C1179       C  0.70502706  0.07718023  0.12334844    -0.03000
C1180       C  0.73702455  0.07087164  0.13851215     0.06700
C1181       C  0.73638888  0.04942917  0.16550362    -0.03100
C1182       C  0.70684060  0.02626646  0.17260621    -0.03100
C1183       C  0.67623148  0.02846615  0.15491306     0.06800
C1184       C  0.67414507  0.05782084  0.13298117    -0.03300
Br1185     Br  0.62960886  0.06983495  0.11501663    -0.01800
Br1186     Br  0.70412492  0.10670165  0.08662118    -0.01900
Br1187     Br  0.70894010  0.99027180  0.20558691    -0.01900
Br1188     Br  0.77731150  0.04942731  0.19112609    -0.01900
C1189       C  0.71111465  0.49095615  0.24952779    -0.03000
C1190       C  0.73308775  0.50941832  0.22825763     0.06700
C1191       C  0.76906406  0.51466747  0.23488095    -0.03100
C1192       C  0.78292301  0.50224301  0.26259882    -0.03100
C1193       C  0.76103481  0.48340300  0.28367968     0.06800
C1194       C  0.72510153  0.47784044  0.27702498    -0.03300
Br1195     Br  0.69476022  0.45350263  0.30625956    -0.01800
Br1196     Br  0.66142663  0.48551512  0.24183861    -0.01900
Br1197     Br  0.83238561  0.50923335  0.27093001    -0.01900
Br1198     Br  0.79984444  0.53697885  0.20518685    -0.01900
C1199       C  0.58209271  0.58886796  0.03122095    -0.03000
C1200       C  0.60932492  0.59872406  0.01060172     0.06700
C1201       C  0.64389567  0.60375118  0.02210357    -0.03100
C1202       C  0.65074599  0.59832194  0.05306245    -0.03100
C1203       C  0.62476420  0.58240829  0.07189751     0.06800
C1204       C  0.59022381  0.57849772  0.06113706    -0.03300
Br1205     Br  0.55405408  0.55873079  0.08770027    -0.01800
Br1206     Br  0.53337209  0.59031599  0.02001820    -0.01900
Br1207     Br  0.69413617  0.61740399  0.07057157    -0.01900
Br1208     Br  0.68257034  0.61922775  0.49647839    -0.01900
C1209       C  0.60303093  0.60235984  0.27246492    -0.03000
C1210       C  0.63739558  0.59819420  0.26050091     0.06700
C1211       C  0.66519884  0.59027392  0.28086468    -0.03100
C1212       C  0.65775331  0.58021107  0.31105234    -0.03100
C1213       C  0.62311788  0.58170410  0.32200927     0.06800
C1214       C  0.59667189  0.59660435  0.30348743    -0.03300
Br1215     Br  0.55377808  0.61532446  0.32172784    -0.01800
Br1216     Br  0.56450720  0.61853416  0.24749087    -0.01900
Br1217     Br  0.69515312  0.56534672  0.33788195    -0.01900
Br1218     Br  0.71378873  0.59456573  0.26909159    -0.01900
C1219       C  0.61856520  0.72813316  0.18023987    -0.03000
C1220       C  0.64439754  0.71079779  0.16112491     0.06700
C1221       C  0.65950131  0.73385515  0.13813576    -0.03100
C1222       C  0.64857085  0.77309611  0.13429535    -0.03100
C1223       C  0.62112351  0.78914367  0.15221749     0.06800
C1224       C  0.60586693  0.76602139  0.17489339    -0.03300
Br1225     Br  0.56870447  0.78673170  0.20034260    -0.01800
Br1226     Br  0.60313077  0.70242091  0.21648739    -0.01900
Br1227     Br  0.67098849  0.80475486  0.10400466    -0.01900
Br1228     Br  0.69484935  0.71219354  0.11148439    -0.01900
C1229       C  0.80339952  0.57456269  0.12651845    -0.03000
C1230       C  0.77112120  0.56566461  0.11213941     0.06700
C1231       C  0.77133390  0.53912232  0.08668564    -0.03100
C1232       C  0.80182092  0.51814449  0.07916182    -0.03100
C1233       C  0.83061867  0.51968742  0.09879247     0.06800
C1234       C  0.83245314  0.54984510  0.12135757    -0.03300
Br1235     Br  0.87254346  0.55466878  0.14793884    -0.01800
Br1236     Br  0.80736437  0.61805819  0.15515539    -0.01900
Br1237     Br  0.80448031  0.48675479  0.04219267    -0.01900
Br1238     Br  0.72942801  0.52653614  0.06382509    -0.01900
C1239       C  0.55216116  0.41922838  0.13336295    -0.03000
C1240       C  0.51981800  0.42755777  0.14766664     0.06700
C1241       C  0.51966366  0.45459397  0.17268692    -0.03100
C1242       C  0.54923884  0.47823369  0.17895622    -0.03100
C1243       C  0.57903732  0.47549366  0.16027130     0.06800
C1244       C  0.58118461  0.44459398  0.13835144    -0.03300
Br1245     Br  0.62134841  0.44030835  0.11171755    -0.01800
Br1246     Br  0.55650390  0.37472583  0.10578245    -0.01900
Br1247     Br  0.54810229  0.51622427  0.21214114    -0.01900
Br1248     Br  0.97806749  0.46318073  0.19690894    -0.01900
O1249       O  0.71672751  0.54358243  0.62882465    -0.82900
C1250       C  0.64365176  0.59979857  0.72706319     0.96400
O1251       O  0.67148308  0.61623825  0.71693880    -0.72100
O1252       O  0.72043403  0.56619773  0.70151245    -0.75600
Al1253     Al  0.69885146  0.60674558  0.67992384     1.49000
C1254       C  0.71741234  0.52936685  0.70208120     0.91700
O1255       O  0.63754710  0.49930106  0.66205878    -0.81900
O1256       O  0.62044228  0.59718636  0.62405708    -0.75400
Al1257     Al  0.67543482  0.52881772  0.64717040     1.90100
O1258       O  0.59678115  0.54216671  0.66086312    -0.74500
O1259       O  0.62812601  0.64535069  0.67165138    -0.74300
O1260       O  0.62132248  0.58407607  0.70899611    -0.80000
O1261       O  0.68285128  0.65393401  0.66066777    -0.78200
O1262       O  0.66556084  0.57515103  0.66429581    -1.14300
O1263       O  0.73208432  0.60097471  0.64672068    -0.73500
C1264       C  0.73781942  0.57165536  0.62940925     0.97200
C1265       C  0.60585914  0.50714220  0.66145673     0.93600
Al1266     Al  0.62106066  0.59061044  0.66631695     1.55600
O1267       O  0.69990321  0.51054160  0.68209026    -0.78200
C1268       C  0.65264330  0.66800113  0.66446512     0.97700
C1269       C  0.63274059  0.57404287  0.60376205     0.92600
O1270       O  0.65140202  0.54416156  0.61013879    -0.83500
O1271       O  0.53856155  0.95360489  0.62516317    -0.82900
C1272       C  0.62167177  0.90172113  0.71349143     0.96400
O1273       O  0.59378366  0.88317321  0.70502191    -0.72100
O1274       O  0.53832981  0.92556701  0.69366203    -0.75600
Al1275     Al  0.56357041  0.88911894  0.66970644     1.49000
C1276       C  0.53843025  0.96214931  0.69747486     0.91700
O1277       O  0.61849847  0.00101728  0.65961517    -0.81900
O1278       O  0.63414128  0.90637327  0.60959127    -0.75400
Al1279     Al  0.58033799  0.97074603  0.64313373     1.90100
O1280       O  0.66032029  0.96179923  0.64743691    -0.74500
O1281       O  0.63667293  0.85623916  0.65624523    -0.74300
O1282       O  0.64285714  0.91720526  0.69473542    -0.80000
O1283       O  0.58187798  0.84372752  0.64843860    -0.78200
O1284       O  0.59376778  0.92395379  0.65497413    -1.14300
O1285       O  0.52915712  0.89265527  0.63733741    -0.73500
C1286       C  0.52013071  0.92303903  0.62336273     0.97200
C1287       C  0.65033721  0.99554181  0.65460598     0.93600
Al1288     Al  0.63907380  0.91156878  0.65217901     1.55600
O1289       O  0.55630346  0.98373394  0.68016074    -0.78200
C1290       C  0.61271000  0.83170813  0.65142811     0.97700
C1291       C  0.61900674  0.93122277  0.59293616     0.92600
O1292       O  0.60259569  0.96100066  0.60402666    -0.83500
O1293       O  0.64458536  0.95896114  0.85259905    -0.82900
C1294       C  0.62202978  0.90777812  0.96379280     0.96400
O1295       O  0.60166425  0.92316491  0.94462685    -0.72100
O1296       O  0.58620842  0.96407902  0.89498937    -0.75600
Al1297     Al  0.60565478  0.91402250  0.90236121     1.49000
C1298       C  0.59683688  0.99800433  0.90144750     0.91700
O1299       O  0.68980717  0.98613631  0.92869073    -0.81900
O1300       O  0.71463197  0.89217099  0.88910232    -0.75400
Al1301     Al  0.66631259  0.97140515  0.89157282     1.90100
O1302       O  0.70566569  0.92846896  0.94409726    -0.74500
O1303       O  0.66051401  0.84615245  0.90003166    -0.74300
O1304       O  0.64891159  0.88762417  0.95585290    -0.80000
O1305       O  0.60626428  0.85883219  0.90910630    -0.78200
O1306       O  0.65119117  0.92585458  0.90492910    -1.14300
O1307       O  0.61116065  0.90537431  0.86011491    -0.73500
C1308       C  0.62733651  0.92874928  0.84258187     0.97200
C1309       C  0.70647445  0.96516473  0.94704407     0.93600
Al1310     Al  0.67984427  0.89134045  0.92086071     1.55600
O1311       O  0.62874064  0.00347518  0.90642418    -0.78200
C1312       C  0.62966112  0.83413650  0.90387441     0.97700
C1313       C  0.72494113  0.92127023  0.87417005     0.92600
O1314       O  0.70785557  0.95246544  0.87473495    -0.83500
O1315       O  0.59598962  0.54290316  0.86024506    -0.82900
C1316       C  0.60250002  0.60032163  0.97721964     0.96400
O1317       O  0.62450920  0.58465614  0.95911023    -0.72100
O1318       O  0.64846766  0.54064562  0.91254825    -0.75600
Al1319     Al  0.62531244  0.59005992  0.91647867     1.49000
C1320       C  0.63829677  0.50567955  0.91354588     0.91700
O1321       O  0.54281420  0.51055219  0.93035511    -0.81900
O1322       O  0.51327447  0.59979911  0.89712976    -0.75400
Al1323     Al  0.56995655  0.52856073  0.89665968     1.90100
O1324       O  0.52547215  0.56608973  0.95155811    -0.74500
O1325       O  0.56346358  0.65318562  0.91086117    -0.74300
O1326       O  0.57468597  0.61622749  0.96716827    -0.80000
O1327       O  0.61841184  0.64507084  0.92042230    -0.78200
O1328       O  0.58038388  0.57474242  0.91423140    -1.14300
O1329       O  0.62731509  0.59587834  0.87426357    -0.73500
C1330       C  0.61513312  0.57273749  0.85392040     0.97200
C1331       C  0.52615658  0.52926835  0.95080357     0.93600
Al1332     Al  0.54721436  0.60620301  0.93007914     1.55600
O1333       O  0.60629274  0.49853260  0.91304901    -0.78200
C1334       C  0.59378660  0.66760445  0.91413136     0.97700
C1335       C  0.00880793  0.57123249  0.87839407     0.92600
O1336       O  0.53046169  0.54455779  0.87712832    -0.83500
O1337       O  0.78860009  0.04212268  0.62090265    -0.82900
C1338       C  0.87253785  0.09144905  0.53126111     0.96400
O1339       O  0.84637171  0.11213329  0.54025405    -0.72100
O1340       O  0.78997959  0.06997470  0.55064787    -0.75600
Al1341     Al  0.81542150  0.10547819  0.57535659     1.49000
C1342       C  0.78793984  0.03336483  0.54749781     0.91700
O1343       O  0.86640935  0.99203260  0.58563249    -0.81900
O1344       O  0.88564308  0.08669781  0.63504857    -0.75400
Al1345     Al  0.82927074  0.02361248  0.60231421     1.90100
O1346       O  0.90943737  0.03100672  0.59671599    -0.74500
O1347       O  0.88836134  0.13734081  0.58865044    -0.74300
O1348       O  0.89317745  0.07545147  0.54980256    -0.80000
O1349       O  0.83445813  0.14844994  0.59876725    -0.78200
O1350       O  0.84423509  0.06983523  0.58999562    -1.14300
O1351       O  0.78021698  0.10221605  0.60674775    -0.73500
C1352       C  0.77082429  0.07281818  0.62176192     0.97200
C1353       C  0.89854522  0.99728915  0.58995043     0.93600
Al1354     Al  0.88986633  0.08152451  0.59232315     1.55600
O1355       O  0.80413456  0.01137855  0.56549278    -0.78200
C1356       C  0.86547297  0.16088530  0.59761537     0.97700
C1357       C  0.86977216  0.06239976  0.65202546     0.92600
O1358       O  0.85221613  0.03301428  0.64114195    -0.83500
O1359       O  0.96500193  0.44861033  0.63227612    -0.82900
C1360       C  0.89157358  0.39088947  0.53337370     0.96400
O1361       O  0.91867909  0.37442026  0.54403665    -0.72100
O1362       O  0.96683984  0.42649411  0.55755409    -0.75600
Al1363     Al  0.94632948  0.38659899  0.58044277     1.49000
C1364       C  0.96548005  0.46343249  0.55798858     0.91700
O1365       O  0.88797927  0.49435611  0.59955051    -0.81900
O1366       O  0.86653680  0.39720831  0.63601524    -0.75400
Al1367     Al  0.92457279  0.46396580  0.61387418     1.90100
O1368       O  0.84575651  0.45222221  0.59721285    -0.74500
O1369       O  0.87584784  0.34735380  0.58949900    -0.74300
O1370       O  0.86966944  0.40788700  0.55087332    -0.80000
O1371       O  0.93016676  0.34197868  0.60233674    -0.78200
O1372       O  0.91354161  0.41827456  0.59601355    -1.14300
O1373       O  0.98108037  0.39341166  0.61200252    -0.73500
C1374       C  0.98647736  0.42151683  0.63044492     0.97200
C1375       C  0.85613448  0.48715187  0.59798214     0.93600
Al1376     Al  0.86865279  0.40280694  0.59354759     1.55600
O1377       O  0.94987357  0.48229343  0.57907268    -0.78200
C1378       C  0.90012129  0.32674544  0.59957059     0.97700
C1379       C  0.87994205  0.41903230  0.65670823     0.92600
O1380       O  0.89998353  0.44832026  0.65073580    -0.83500
O1381       O  0.84330448  0.44858691  0.90109107    -0.82900
C1382       C  0.85141015  0.39217895  0.78411152     0.96400
O1383       O  0.87374207  0.40741194  0.80241754    -0.72100
O1384       O  0.89772194  0.44997839  0.85049133    -0.75600
Al1385     Al  0.87333109  0.40121566  0.84527593     1.49000
C1386       C  0.88879629  0.48508095  0.84906697     0.91700
O1387       O  0.79425061  0.48175199  0.82958231    -0.81900
O1388       O  0.76176248  0.39150840  0.86409423    -0.75400
Al1389     Al  0.81911695  0.46343393  0.86414354     1.90100
O1390       O  0.77434938  0.42624386  0.80953881    -0.74500
O1391       O  0.81078244  0.33779934  0.85002670    -0.74300
O1392       O  0.82324489  0.37617984  0.79406821    -0.80000
O1393       O  0.86583696  0.34631239  0.84006318    -0.78200
O1394       O  0.82885954  0.41694787  0.84697731    -1.14300
O1395       O  0.87343644  0.39488544  0.88757275    -0.73500
C1396       C  0.86131549  0.41837995  0.90769311     0.97200
C1397       C  0.77695399  0.46307951  0.80942228     0.93600
Al1398     Al  0.79546675  0.38557219  0.83103046     1.55600
O1399       O  0.85705058  0.49289492  0.84871981    -0.78200
C1400       C  0.84083997  0.32351960  0.84586172     0.97700
C1401       C  0.75654414  0.42047912  0.88193883     0.92600
O1402       O  0.77805374  0.44822587  0.88277519    -0.83500
O1403       O  0.89398898  0.03034355  0.89153351    -0.82900
C1404       C  0.87202611  0.08689669  0.78157731     0.96400
O1405       O  0.85143963  0.07076431  0.80045236    -0.72100
O1406       O  0.83597673  0.02656769  0.84807140    -0.75600
Al1407     Al  0.85542638  0.07741034  0.84296073     1.49000
C1408       C  0.84682284  0.99323440  0.84077956     0.91700
O1409       O  0.94036932  0.00830623  0.81498597    -0.81900
O1410       O  0.96498331  0.10082249  0.85598527    -0.75400
Al1411     Al  0.91615451  0.02081453  0.85213039     1.90100
O1412       O  0.95539168  0.06695997  0.80016664    -0.74500
O1413       O  0.91056584  0.14690092  0.84654191    -0.74300
O1414       O  0.89876566  0.10744784  0.78994269    -0.80000
O1415       O  0.85593425  0.13303188  0.83893771    -0.78200
O1416       O  0.90104860  0.06677183  0.83991298    -1.14300
O1417       O  0.86069512  0.08349332  0.88538014    -0.73500
C1418       C  0.87695722  0.05991928  0.90229551     0.97200
C1419       C  0.95687367  0.03032770  0.79697810     0.93600
Al1420     Al  0.92975804  0.10265336  0.82456170     1.55600
O1421       O  0.87884787  0.98864876  0.83609729    -0.78200
C1422       C  0.87931851  0.15798420  0.84477883     0.97700
C1423       C  0.97494744  0.07131166  0.87041026     0.92600
O1424       O  0.95733523  0.04012580  0.86953498    -0.83500
C1425       C  0.83502373  0.25483752  0.86819045    -0.03000
C1426       C  0.84800545  0.28021218  0.84572346     0.06700
C1427       C  0.87075640  0.26446190  0.82322551    -0.03100
C1428       C  0.88327858  0.22587773  0.82483903    -0.03100
C1429       C  0.87002648  0.20038154  0.84681821     0.06800
C1430       C  0.84497065  0.21474258  0.86799355    -0.03300
Br1431     Br  0.82485696  0.17970497  0.89721659    -0.01800
Br1432     Br  0.80461268  0.27470018  0.89977205    -0.01900
Br1433     Br  0.91789496  0.20785715  0.79576379    -0.01900
Br1434     Br  0.88177182  0.29382749  0.78763309    -0.01900
C1435       C  0.91198467  0.40417062  0.97993174    -0.03000
C1436       C  0.88534183  0.39160875  0.00004177     0.06700
C1437       C  0.85152124  0.38343586  0.98830396    -0.03100
C1438       C  0.84408156  0.39068735  0.95766702    -0.03100
C1439       C  0.86903738  0.41003647  0.93958722     0.06800
C1440       C  0.90321026  0.41618530  0.95064256    -0.03300
Br1441     Br  0.93802220  0.44106771  0.92539841    -0.01800
Br1442     Br  0.96090634  0.40069456  0.49022497    -0.01900
Br1443     Br  0.80141983  0.37048337  0.93963056    -0.01900
Br1444     Br  0.81665720  0.35814407  0.51316976    -0.01900
C1445       C  0.83762530  0.41165995  0.69981953    -0.03000
C1446       C  0.87211781  0.40941827  0.68862576     0.06700
C1447       C  0.89835905  0.39396021  0.70710941    -0.03100
C1448       C  0.89226152  0.38922801  0.73838185    -0.03100
C1449       C  0.85796973  0.39404164  0.75056160     0.06800
C1450       C  0.83023183  0.40216551  0.73015806    -0.03300
Br1451     Br  0.78166393  0.39936187  0.74215299    -0.01800
Br1452     Br  0.80022207  0.42658020  0.67303842    -0.01900
Br1453     Br  0.93115997  0.37408318  0.76335220    -0.01900
Br1454     Br  0.93995418  0.37233851  0.68836585    -0.01900
C1455       C  0.88719768  0.11279092  0.97859883    -0.03000
C1456       C  0.87721545  0.08308602  0.99851201     0.06700
C1457       C  0.86897535  0.04521879  0.98676200    -0.03100
C1458       C  0.86659942  0.03845001  0.95534791    -0.03100
C1459       C  0.87700534  0.06783146  0.93535816     0.06800
C1460       C  0.88896132  0.10450149  0.94718700    -0.03300
Br1461     Br  0.91081039  0.14202401  0.92095620    -0.01800
Br1462     Br  0.89968621  0.16415275  0.99454558    -0.01900
Br1463     Br  0.84609176  0.99015014  0.93994592    -0.01900
Br1464     Br  0.86063018  0.00209998  0.51323679    -0.01900
C1465       C  0.87593314  0.03708690  0.70457438    -0.03000
C1466       C  0.87039808  0.06890030  0.68535649     0.06700
C1467       C  0.86261854  0.10627165  0.69830610    -0.03100
C1468       C  0.86063301  0.11152962  0.72997546    -0.03100
C1469       C  0.86667574  0.07984928  0.74891689     0.06800
C1470       C  0.87344891  0.04235347  0.73616308    -0.03300
Br1471     Br  0.88206312  0.99839562  0.76172813    -0.01800
Br1472     Br  0.89070192  0.98707120  0.68813130    -0.01900
Br1473     Br  0.84820842  0.16175203  0.74780526    -0.01900
Br1474     Br  0.85377368  0.15065145  0.67337167    -0.01900
C1475       C  0.91070617  0.21550558  0.60596096    -0.03000
C1476       C  0.87492000  0.20305534  0.60528222     0.06700
C1477       C  0.84891799  0.23182482  0.61126732    -0.03100
C1478       C  0.85827513  0.27199347  0.61318280    -0.03100
C1479       C  0.89297534  0.28448329  0.60644788     0.06800
C1480       C  0.91957443  0.25580643  0.60497529    -0.03300
Br1481     Br  0.96859967  0.27037425  0.60123805    -0.01800
Br1482     Br  0.94835496  0.17844359  0.61099822    -0.01900
Br1483     Br  0.82384308  0.30937824  0.62786598    -0.01900
Br1484     Br  0.80009456  0.21793112  0.61780844    -0.01900
C1485       C  0.69064599  0.41646128  0.88729817    -0.03000
C1486       C  0.72358911  0.42661250  0.89996571     0.06700
C1487       C  0.72429890  0.45415079  0.92466727    -0.03100
C1488       C  0.69478493  0.47731984  0.93135836    -0.03100
C1489       C  0.66430238  0.47324636  0.91366721     0.06800
C1490       C  0.66110486  0.44019900  0.89368309    -0.03300
Br1491     Br  0.61757505  0.42880349  0.87286181    -0.01800
Br1492     Br  0.68608753  0.37167807  0.86000021    -0.01900
Br1493     Br  0.69613760  0.51503466  0.96470160    -0.01900
Br1494     Br  0.76635166  0.46290762  0.94832873    -0.01900
C1495       C  0.91351189  0.55087287  0.86753828    -0.03000
C1496       C  0.91598755  0.51674634  0.84866909     0.06700
C1497       C  0.94645689  0.51126451  0.83113933    -0.03100
C1498       C  0.97649014  0.53447382  0.83690555    -0.03100
C1499       C  0.97608862  0.56420653  0.86013820     0.06800
C1500       C  0.94319810  0.57562897  0.87194204    -0.03300
Br1501     Br  0.93869500  0.62474503  0.89406165    -0.01800
Br1502     Br  0.87121743  0.56196101  0.89015974    -0.01900
Br1503     Br  0.51839619  0.52294570  0.81403698    -0.01900
Br1504     Br  0.94734102  0.47113791  0.79950900    -0.01900
C1505       C  0.96032325  0.50500054  0.01207016    -0.03000
C1506       C  0.98149142  0.48365830  0.53205430     0.06700
C1507       C  0.51657909  0.47544259  0.52384532    -0.03100
C1508       C  0.53021683  0.48730182  0.49587148    -0.03100
C1509       C  0.50918618  0.50900662  0.97620442     0.06800
C1510       C  0.97438100  0.51817953  0.98449041    -0.03300
Br1511     Br  0.94557784  0.54828447  0.95780518    -0.01800
Br1512     Br  0.91152037  0.51400919  0.02163335    -0.01900
Br1513     Br  0.57838217  0.47568078  0.48551942    -0.01900
Br1514     Br  0.54649590  0.44907443  0.55169101    -0.01900
C1515       C  0.58237494  0.73517291  0.89189938    -0.03000
C1516       C  0.60152978  0.71082785  0.91144642     0.06700
C1517       C  0.62960844  0.72803705  0.92837821    -0.03100
C1518       C  0.64015698  0.76720320  0.92409800    -0.03100
C1519       C  0.62106073  0.79138645  0.90475664     0.06800
C1520       C  0.59161408  0.77536985  0.88918221    -0.03300
Br1521     Br  0.56426909  0.80830879  0.86334852    -0.01800
Br1522     Br  0.54372589  0.71418740  0.86820298    -0.01900
Br1523     Br  0.67989145  0.78794935  0.94678955    -0.01900
Br1524     Br  0.65186767  0.70031010  0.96057677    -0.01900
C1525       C  0.57217969  0.06012890  0.88062651    -0.03000
C1526       C  0.57105268  0.03046227  0.90239096     0.06700
C1527       C  0.54081569  0.02659475  0.92045000    -0.03100
C1528       C  0.51015558  0.04699358  0.91325785    -0.03100
C1529       C  0.50889014  0.06953760  0.88678362     0.06800
C1530       C  0.54073251  0.07835199  0.87171518    -0.03300
Br1531     Br  0.54081156  0.11009334  0.83609940    -0.01800
Br1532     Br  0.61627745  0.07461534  0.86239050    -0.01900
Br1533     Br  0.46863046  0.04040648  0.93783070    -0.01900
Br1534     Br  0.54106987  0.99186982  0.95431087    -0.01900
C1535       C  0.76028691  0.94246157  0.83001059    -0.03000
C1536       C  0.75882716  0.92222266  0.85759437     0.06700
C1537       C  0.79047428  0.91506662  0.87309960    -0.03100
C1538       C  0.82214034  0.93222577  0.86297890    -0.03100
C1539       C  0.82142568  0.95999357  0.83985961     0.06800
C1540       C  0.79122782  0.96237374  0.82170875    -0.03300
Br1541     Br  0.79171927  0.99464239  0.78643072    -0.01800
Br1542     Br  0.71863754  0.94693302  0.80553188    -0.01900
Br1543     Br  0.86600159  0.92004228  0.88203717    -0.01900
Br1544     Br  0.78995948  0.88865470  0.91127292    -0.01900
C1545       C  0.74451571  0.01943923  0.96953062    -0.03000
C1546       C  0.72699979  0.98306271  0.97280119     0.06700
C1547       C  0.72960715  0.96360115  0.00092534    -0.03100
C1548       C  0.74802480  0.98089859  0.52553897    -0.03100
C1549       C  0.76642647  0.01658101  0.52198553     0.06800
C1550       C  0.76364625  0.03629618  0.49400802    -0.03300
Br1551     Br  0.78578729  0.08683122  0.48771725    -0.01800
Br1552     Br  0.74519002  0.04516831  0.93081312    -0.01900
Br1553     Br  0.74456510  0.95740463  0.56506436    -0.01900
Br1554     Br  0.70890874  0.91235255  0.00718051    -0.01900
C1555       C  0.49855498  0.01430972  0.71869844    -0.03000
C1556       C  0.51736113  0.97941209  0.72286243     0.06700
C1557       C  0.01562495  0.96107735  0.75132407    -0.03100
C1558       C  0.99766418  0.97900450  0.77580533    -0.03100
C1559       C  0.97823744  0.01344664  0.77155431     0.06800
C1560       C  0.47958235  0.03155901  0.74292522    -0.03300
Br1561     Br  0.45647419  0.08069541  0.73581657    -0.01800
Br1562     Br  0.49533545  0.03657759  0.67880678    -0.01900
Br1563     Br  0.00358224  0.95860225  0.81605792    -0.01900
Br1564     Br  0.03638451  0.91045460  0.75782389    -0.01900
C1565       C  0.62497437  0.95171373  0.50925604    -0.03000
C1566       C  0.61604932  0.91482185  0.49630286     0.06700
C1567       C  0.60698958  0.88353191  0.51498383    -0.03100
C1568       C  0.60745347  0.88890039  0.54669152    -0.03100
C1569       C  0.61924617  0.92497594  0.55972672     0.06800
C1570       C  0.62850996  0.95607244  0.54077511    -0.03300
Br1571     Br  0.64993163  0.00308461  0.55747505    -0.01800
Br1572     Br  0.63351488  0.99632952  0.98408415    -0.01900
Br1573     Br  0.59024019  0.84733734  0.57176225    -0.01900
Br1574     Br  0.59284333  0.83390611  0.49670776    -0.01900
C1575       C  0.63609094  0.88395072  0.79699471    -0.03000
C1576       C  0.62638575  0.92094421  0.80954147     0.06700
C1577       C  0.61811706  0.95165084  0.79018965    -0.03100
C1578       C  0.62051643  0.94608209  0.75872609    -0.03100
C1579       C  0.62742155  0.90856307  0.74616470     0.06800
C1580       C  0.63571156  0.87756747  0.76527980    -0.03300
Br1581     Br  0.64859198  0.82738298  0.74767766    -0.01800
Br1582     Br  0.65176692  0.84265565  0.82273675    -0.01900
Br1583     Br  0.61355360  0.99023888  0.73313195    -0.01900
Br1584     Br  0.60004995  0.00036519  0.80653542    -0.01900
C1585       C  0.95505144  0.96867479  0.57158280    -0.03000
C1586       C  0.92424139  0.96461276  0.58889629     0.06700
C1587       C  0.92276662  0.93519467  0.61079039    -0.03100
C1588       C  0.95404041  0.91729060  0.62054456    -0.03100
C1589       C  0.98642322  0.92631003  0.60637805     0.06800
C1590       C  0.98592067  0.94926345  0.57999238    -0.03300
Br1591     Br  0.52839050  0.95766452  0.55703350    -0.01800
Br1592     Br  0.95480320  0.00163612  0.53663492    -0.01900
Br1593     Br  0.95275040  0.88576953  0.65621742    -0.01900
Br1594     Br  0.87815099  0.92072847  0.62806040    -0.01900
C1595       C  0.70511431  0.07710266  0.62348304    -0.03000
C1596       C  0.73710818  0.07068986  0.63862497     0.06700
C1597       C  0.73644684  0.04921792  0.66560173    -0.03100
C1598       C  0.70684873  0.02613502  0.67270928    -0.03100
C1599       C  0.67625540  0.02838489  0.65499986     0.06800
C1600       C  0.67421118  0.05776577  0.63308827    -0.03300
Br1601     Br  0.62969438  0.06986573  0.61512833    -0.01800
Br1602     Br  0.70422320  0.10678821  0.58683504    -0.01900
Br1603     Br  0.70883070  0.99022392  0.70574925    -0.01900
Br1604     Br  0.77736911  0.04912397  0.69122556    -0.01900
C1605       C  0.71114649  0.49081324  0.74944043    -0.03000
C1606       C  0.73312120  0.50924804  0.72815804     0.06700
C1607       C  0.76908516  0.51455906  0.73480303    -0.03100
C1608       C  0.78292135  0.50228040  0.76256854    -0.03100
C1609       C  0.76104014  0.48343285  0.78364866     0.06800
C1610       C  0.72512096  0.47779143  0.77696993    -0.03300
Br1611     Br  0.69476959  0.45353107  0.80623444    -0.01800
Br1612     Br  0.66146883  0.48530542  0.74173081    -0.01900
Br1613     Br  0.83233628  0.50954637  0.77098771    -0.01900
Br1614     Br  0.79988773  0.53673570  0.70507137    -0.01900
C1615       C  0.58213815  0.58913157  0.53118641    -0.03000
C1616       C  0.60940670  0.59885110  0.51056219     0.06700
C1617       C  0.64397967  0.60380471  0.52207397    -0.03100
C1618       C  0.65080772  0.59837612  0.55303628    -0.03100
C1619       C  0.62478686  0.58254631  0.57187394     0.06800
C1620       C  0.59023147  0.57877814  0.56111674    -0.03300
Br1621     Br  0.55398577  0.55924188  0.58770393    -0.01800
Br1622     Br  0.53342421  0.59074152  0.51996415    -0.01900
Br1623     Br  0.69422020  0.61738251  0.57054799    -0.01900
Br1624     Br  0.68245139  0.61926000  0.99649743    -0.01900
C1625       C  0.60297612  0.60229945  0.77244009    -0.03000
C1626       C  0.63733922  0.59801333  0.76049502     0.06700
C1627       C  0.66510552  0.59002850  0.78087885    -0.03100
C1628       C  0.65761632  0.58003977  0.81107385    -0.03100
C1629       C  0.62298815  0.58170725  0.82202529     0.06800
C1630       C  0.59658961  0.59665004  0.80347442    -0.03300
Br1631     Br  0.55374130  0.61555617  0.82168468    -0.01800
Br1632     Br  0.56449995  0.61849007  0.74741826    -0.01900
Br1633     Br  0.69494652  0.56503513  0.83792520    -0.01900
Br1634     Br  0.71370863  0.59414703  0.76912497    -0.01900
C1635       C  0.61872029  0.72812943  0.68042753    -0.03000
C1636       C  0.64445206  0.71075423  0.66123435     0.06700
C1637       C  0.65947200  0.73377942  0.63818848    -0.03100
C1638       C  0.64852705  0.77301512  0.63434410    -0.03100
C1639       C  0.62113958  0.78909099  0.65232259     0.06800
C1640       C  0.60600841  0.76602034  0.67509369    -0.03300
Br1641     Br  0.56902846  0.78682382  0.70069583    -0.01800
Br1642     Br  0.60347154  0.70245698  0.71674912    -0.01900
Br1643     Br  0.67087161  0.80463672  0.60399301    -0.01900
Br1644     Br  0.69473229  0.71207570  0.61147079    -0.01900
C1645       C  0.80341097  0.57450796  0.62653540    -0.03000
C1646       C  0.77114170  0.56564766  0.61212458     0.06700
C1647       C  0.77137231  0.53916454  0.58663165    -0.03100
C1648       C  0.80186760  0.51821285  0.57908901    -0.03100
C1649       C  0.83064585  0.51969868  0.59873909     0.06800
C1650       C  0.83247639  0.54982010  0.62133406    -0.03300
Br1651     Br  0.87259953  0.55465869  0.64787874    -0.01800
Br1652     Br  0.80733896  0.61786544  0.65530554    -0.01900
Br1653     Br  0.80458126  0.48696560  0.54205306    -0.01900
Br1654     Br  0.72948420  0.52658736  0.56374343    -0.01900
C1655       C  0.55215894  0.41920526  0.63331800    -0.03000
C1656       C  0.51981343  0.42760161  0.64760362     0.06700
C1657       C  0.51967863  0.45463643  0.67262300    -0.03100
C1658       C  0.54925929  0.47826512  0.67887184    -0.03100
C1659       C  0.57906415  0.47546595  0.66020274     0.06800
C1660       C  0.58121730  0.44451419  0.63832790    -0.03300
Br1661     Br  0.62146823  0.44004840  0.61180660    -0.01800
Br1662     Br  0.55647159  0.37469628  0.60573212    -0.01900
Br1663     Br  0.54811991  0.51632386  0.71200929    -0.01900
Br1664     Br  0.97799659  0.46293659  0.69706099    -0.01900
loop_ 
_geom_bond_atom_site_label_1 
_geom_bond_atom_site_label_2 
_geom_bond_distance 
_geom_bond_site_symmetry_2 
_ccdc_geom_bond_type 
O1           C16   1.244       .  A
O1           Al9   1.839       .  S
C2           O12   1.274       .  A
C2            O3   1.279       .  A
C2          C378   1.497       .  S
O3           Al5   1.959       .  S
O4            C6   1.260       .  A
O4           Al5   1.892       .  S
Al5          O13   1.941       .  S
Al5          O15   1.942       .  S
Al5          O14   1.786       .  S
C6           O19   1.267       .  A
C6          C358   1.484       .  S
O7           C17   1.240       .  A
O7           Al9   1.878       .  S
O8           C21   1.271       .  A
O8          Al18   1.884       .  S
Al9          O22   1.960       .  S
Al9          O19   1.922       .  S
Al9          O14   1.778       .  S
O10          C17   1.247       .  A
O10         Al18   1.896       .  S
O11          C20   1.251       .  A
O11         Al18   1.892       .  S
O12         Al18   1.902       .  S
O13          C20   1.260       .  A
O14         Al18   1.782       .  S
O15          C16   1.264       .  A
C16         C398   1.493       .  S
C17         C411   1.479       .  S
C20         C388   1.503       .  S
C21          O22   1.285       .  A
C21         C371   1.476       .  S
O23          C38   1.252       .  A
O23         Al31   1.864       .  S
C24          O34   1.274       .  A
C24          O25   1.283       .  A
C24         C331   1.472       .  S
O25         Al27   1.955       .  S
O26          C28   1.254       .  A
O26         Al27   1.882       .  S
Al27         O35   1.926       .  S
Al27         O37   1.948       .  S
Al27         O36   1.778       .  S
C28          O41   1.266       .  A
C28         C308   1.490       .  S
O29          C39   1.248   1_545  A
O29         Al31   1.911   1_545  S
O30          C43   1.277       .  A
O30         Al40   1.894       .  S
Al31         O44   1.944       .  S
Al31         O41   1.916       .  S
Al31         O36   1.770       .  S
O32          C39   1.248       .  A
O32         Al40   1.903       .  S
O33          C42   1.248       .  A
O33         Al40   1.900       .  S
O34         Al40   1.889       .  S
O35          C42   1.256       .  A
O36         Al40   1.784       .  S
O37          C38   1.268       .  A
C38        C1173   1.495   1_455  S
C39         C351   1.486   1_565  S
C42         C391   1.492       .  S
C43          O44   1.284       .  A
C43         C321   1.476       .  S
O45          C60   1.287       .  A
O45         Al53   1.947       .  S
C46          O56   1.282       .  A
C46          O47   1.274       .  A
C46         C734   1.467       .  S
O47         Al49   1.890       .  S
O48          C50   1.249       .  A
O48         Al49   1.902       .  S
Al49         O57   1.912       .  S
Al49         O59   1.893       .  S
Al49         O58   1.781       .  S
C50          O63   1.247   1_565  A
C50         C278   1.486   1_565  S
O51          C61   1.268       .  A
O51         Al53   1.923       .  S
O52          C65   1.263       .  A
O52         Al62   1.927       .  S
Al53         O66   1.861       .  S
Al53         O63   1.914   1_565  S
Al53         O58   1.765       .  S
O54          C61   1.255       .  A
O54         Al62   1.883       .  S
O55          C64   1.254       .  A
O55         Al62   1.918       .  S
O56         Al62   1.946       .  S
O57          C64   1.249       .  A
O58         Al62   1.771       .  S
O59          C60   1.277       .  A
C60         C328   1.477       .  S
C61         C298   1.497       .  S
C64         C271   1.492       .  S
C65          O66   1.252       .  A
C65         C288   1.483       .  S
O67          C82   1.282       .  A
O67         Al75   1.956       .  S
C68          O78   1.280       .  A
C68          O69   1.270       .  A
C68         C784   1.499       .  S
O69         Al71   1.895       .  S
O70          C72   1.252       .  A
O70         Al71   1.913       .  S
Al71         O79   1.900       .  S
Al71         O81   1.880       .  S
Al71         O80   1.787       .  S
C72          O85   1.241       .  A
C72         C241   1.491       .  S
O73          C83   1.266       .  A
O73         Al75   1.919       .  S
O74         C919   1.267       .  A
O74         Al84   1.956       .  S
Al75         O88   1.829       .  S
Al75         O85   1.885       .  S
Al75         O80   1.781       .  S
O76          C83   1.255       .  A
O76         Al84   1.868       .  S
O77          C86   1.259       .  A
O77         Al84   1.926       .  S
O78         Al84   1.967       .  S
O79          C86   1.254       .  A
O80         Al84   1.795       .  S
O81          C82   1.267       .  A
C82         C381   1.477       .  S
C83         C261   1.475       .  S
C86         C268   1.507       .  S
C87         O906   1.267       .  A
C87         O920   1.243       .  A
C87         C251   1.500       .  S
O88         C919   1.243       .  A
O89         C104   1.251       .  A
O89         Al97   1.860       .  S
C90         O100   1.272       .  A
C90          O91   1.283       .  A
C90         C624   1.477   1_554  S
O91         Al93   1.961       .  S
O92          C94   1.254       .  A
O92         Al93   1.875       .  S
Al93        O101   1.911       .  S
Al93        O103   1.930       .  S
Al93        O102   1.779       .  S
C94         O107   1.270       .  A
C94         C301   1.495       .  S
O95         C105   1.250       .  A
O95         Al97   1.920   1_565  S
O96         C109   1.277       .  A
O96        Al106   1.896       .  S
Al97        O110   1.945       .  S
Al97        O107   1.924       .  S
Al97        O102   1.768       .  S
O98         C105   1.248   1_545  A
O98        Al106   1.897       .  S
O99         C108   1.248       .  A
O99        Al106   1.915       .  S
O100       Al106   1.887       .  S
O101        C108   1.253       .  A
O102       Al106   1.783       .  S
O103        C104   1.263       .  A
C104        C348   1.485       .  S
C105        C338   1.490       .  S
C108        C228   1.510       .  S
C109        O110   1.284       .  A
C109        C218   1.483       .  S
O111        C126   1.241       .  A
O111       Al119   1.829       .  S
C112        O122   1.270       .  A
C112        O113   1.276       .  A
C112        C604   1.491       .  S
O113       Al115   1.959       .  S
O114        C116   1.261       .  A
O114       Al115   1.877       .  S
Al115       O123   1.917       .  S
Al115       O125   1.934       .  S
Al115       O124   1.785       .  S
C116        O129   1.269       .  A
C116        C258   1.477       .  S
O117        C127   1.237       .  A
O117       Al119   1.865       .  S
O118        C131   1.270       .  A
O118       Al128   1.890       .  S
Al119       O132   1.957       .  S
Al119       O129   1.924       .  S
Al119       O124   1.777       .  S
O120        C127   1.251       .  A
O120       Al128   1.907       .  S
O121        C130   1.255       .  A
O121       Al128   1.916       .  S
O122       Al128   1.895       .  S
O123        C130   1.258       .  A
O124       Al128   1.788       .  S
O125        C126   1.259       .  A
C126       C1240   1.491       .  S
C127        C401   1.481       .  S
C130        C231   1.502       .  S
C131        O132   1.283       .  A
C131        C198   1.482       .  S
O133        C148   1.282       .  A
O133       Al141   1.954       .  S
C134        O144   1.280       .  A
C134        O135   1.274       .  A
C134        C201   1.504       .  S
O135       Al137   1.908       .  S
O136        C138   1.250       .  A
O136       Al137   1.906       .  S
Al137       O145   1.899       .  S
Al137       O147   1.884       .  S
Al137       O146   1.783       .  S
C138        O151   1.241       .  A
C138        C248   1.489       .  S
O139        C149   1.265       .  A
O139       Al141   1.918       .  S
O140        C153   1.266       .  A
O140       Al150   1.949       .  S
Al141       O154   1.842       .  S
Al141       O151   1.887       .  S
Al141       O146   1.783       .  S
O142        C149   1.259       .  A
O142       Al150   1.886       .  S
O143        C152   1.260       .  A
O143       Al150   1.944       .  S
O144       Al150   1.964       .  S
O145        C152   1.253       .  A
O146       Al150   1.790       .  S
O147        C148   1.271       .  A
C148        C191   1.473       .  S
C149        C361   1.480       .  S
C152        C178   1.504       .  S
C153        O154   1.246       .  A
C153        C238   1.498       .  S
O155        C170   1.285       .  A
O155       Al163   1.953       .  S
C156        O166   1.281       .  A
C156        O157   1.273       .  A
C156        C221   1.470       .  S
O157       Al159   1.891       .  S
O158        C160   1.248   1_545  A
O158       Al159   1.897       .  S
Al159       O167   1.908       .  S
Al159       O169   1.890       .  S
Al159       O168   1.783       .  S
C160        O173   1.248       .  A
C160        C291   1.483       .  S
O161        C171   1.268       .  A
O161       Al163   1.920       .  S
O162        C175   1.265       .  A
O162       Al172   1.935       .  S
Al163       O176   1.857       .  S
Al163       O173   1.914   1_545  S
Al163       O168   1.770       .  S
O164        C171   1.255       .  A
O164       Al172   1.884       .  S
O165        C174   1.256       .  A
O165       Al172   1.923       .  S
O166       Al172   1.944       .  S
O167        C174   1.249       .  A
O168       Al172   1.778       .  S
O169        C170   1.275       .  A
C170        C211   1.478       .  S
C171        C311   1.492       .  S
C174        C181   1.492       .  S
C175        O176   1.252       .  A
C175       C1113   1.487       .  S
C177        C178   1.416       .  A
C177        C182   1.422       .  A
C177       Br184   1.925       .  S
C178        C179   1.416       .  A
C179        C180   1.407       .  A
C179       Br186   1.925       .  S
C180        C181   1.407       .  A
C180       Br185   1.932       .  S
C181        C182   1.417       .  A
C182       Br183   1.930       .  S
C187        C188   1.416       .  A
C187        C192   1.407       .  A
C187       Br610   1.921       .  S
C188        C528   1.490       .  S
C188        C189   1.413       .  A
C189        C190   1.410       .  A
C189       Br612   1.930       .  S
C190        C191   1.409       .  A
C190       Br195   1.926       .  S
C191        C192   1.404       .  A
C192       Br193   1.933       .  S
Br194       C603   1.921       .  S
Br196       C605   1.930   1_554  S
C197        C198   1.405       .  A
C197        C202   1.412       .  A
C197       Br204   1.933       .  S
C198        C199   1.406       .  A
C199        C200   1.412       .  A
C199       Br206   1.930       .  S
C200        C201   1.421       .  A
C200       Br205   1.930       .  S
C201        C202   1.424       .  A
C202       Br203   1.925       .  S
C207        C208   1.405       .  A
C207        C212   1.410       .  A
C207       Br214   1.928       .  S
C208        C506   1.477       .  S
C208        C209   1.413       .  A
C209        C210   1.403       .  A
C209       Br632   1.922       .  S
C210        C211   1.404       .  A
C210       Br215   1.926   1_545  S
C211        C212   1.415       .  A
C212       Br213   1.927       .  S
Br216       C625   1.922   1_554  S
C217        C218   1.410       .  A
C217        C222   1.405       .  A
C217       Br224   1.926   1_545  S
C218        C219   1.418       .  A
C219        C220   1.407       .  A
C219       Br226   1.924       .  S
C220        C221   1.402       .  A
C220       Br225   1.930       .  S
C221        C222   1.410       .  A
C222       Br223   1.928   1_545  S
C227        C228   1.424       .  A
C227        C232   1.413       .  A
C227       Br234   1.937       .  S
C228        C229   1.420       .  A
C229        C230   1.412       .  A
C229       Br236   1.938       .  S
C230        C231   1.418       .  A
C230       Br235   1.938       .  S
C231        C232   1.415       .  A
C232       Br233   1.936       .  S
C237        C238   1.412       .  A
C237        C242   1.416       .  A
C237       Br244   1.930       .  S
C238        C239   1.422       .  A
C239        C240   1.407       .  A
C239       Br246   1.932       .  S
C240        C241   1.405       .  A
C240       Br245   1.932       .  S
C241        C242   1.419       .  A
C242       Br243   1.930       .  S
C247        C248   1.419       .  A
C247        C252   1.416       .  A
C247       Br254   1.929       .  S
C248        C249   1.405       .  A
C249        C250   1.405       .  A
C249       Br256   1.932       .  S
C250        C251   1.425       .  A
C250      Br1087   1.935       .  S
C251        C252   1.411       .  A
C252       Br253   1.927       .  S
Br255      C1082   1.935   1_455  S
C257        C262   1.410       .  A
C257        C674   1.410       .  A
C257       Br264   1.931       .  S
C258        C673   1.410       .  A
C258       C1091   1.410       .  A
C259        C260   1.405   1_554  A
C259       C1090   1.410   1_455  A
C259       Br266   1.922       .  S
C260        C677   1.408       .  A
C260       Br265   1.932       .  S
C261        C676   1.408       .  A
C261       C1094   1.414   1_455  A
C262       C1093   1.414       .  A
C262       Br263   1.931       .  S
C267        C268   1.419       .  A
C267        C272   1.419       .  A
C267       Br274   1.931       .  S
C268        C269   1.421       .  A
C269        C270   1.407       .  A
C269       Br276   1.928       .  S
C270        C271   1.409       .  A
C270       Br275   1.937       .  S
C271        C272   1.416       .  A
C272       Br273   1.932       .  S
C277        C278   1.411       .  A
C277        C282   1.415       .  A
C277       Br284   1.926       .  S
C278        C279   1.406       .  A
C279        C280   1.406       .  A
C279       Br286   1.928   1_545  S
C280        C281   1.414       .  A
C280       Br285   1.930   1_455  S
C281       C1007   1.487   1_455  S
C281        C282   1.415       .  A
C282       Br283   1.929       .  S
C287        C288   1.414       .  A
C287        C292   1.407       .  A
C287       Br294   1.931       .  S
C288        C289   1.414       .  A
C289        C290   1.412       .  A
C289       Br296   1.928       .  S
C290        C291   1.408       .  A
C290       Br295   1.926       .  S
C291        C292   1.408       .  A
C292       Br293   1.927       .  S
C297        C298   1.413   1_545  A
C297        C718   1.411       .  A
C297       Br304   1.939       .  S
C298        C299   1.425       .  A
C299        C716   1.409       .  A
C299       Br306   1.936       .  S
C300        C301   1.410   1_565  A
C300        C715   1.409       .  A
C300       Br305   1.940       .  S
C301        C302   1.424   1_554  A
C302        C713   1.411       .  A
C302       Br303   1.936       .  S
C307        C308   1.410   1_645  A
C307        C312   1.409       .  A
C307       Br314   1.938       .  S
C308       C1141   1.421       .  A
C309        C310   1.408       .  A
C309       C1140   1.421       .  A
C309       Br316   1.933       .  S
C310        C311   1.410   1_565  A
C310       Br315   1.937       .  S
C311       C1144   1.422       .  A
C312       C1143   1.422       .  A
C312       Br313   1.932       .  S
C317        C318   1.408   1_554  A
C317        C322   1.402       .  A
C317       Br740   1.927   1_554  S
C318        C462   1.466       .  S
C318        C319   1.403   1_556  A
C319        C320   1.407       .  A
C319       Br326   1.930   1_554  S
C320        C321   1.415       .  A
C320       Br325   1.927       .  S
C321        C322   1.407       .  A
C322       Br323   1.924   1_565  S
Br324       C733   1.927       .  S
C327        C328   1.417       .  A
C327        C332   1.412       .  A
C327       Br334   1.929       .  S
C328        C329   1.405       .  A
C329        C330   1.400       .  A
C329       Br336   1.927   1_565  S
C330        C331   1.409       .  A
C330       Br335   1.923       .  S
C331        C332   1.406       .  A
C332       Br333   1.929       .  S
C337        C338   1.406       .  A
C337        C342   1.410       .  A
C337       Br344   1.929   1_565  S
C338        C339   1.409       .  A
C339        C340   1.416       .  A
C339       Br346   1.926       .  S
C340        C341   1.416       .  A
C340       Br345   1.927       .  S
C341        C870   1.494       .  S
C341        C342   1.418       .  A
C342      Br1175   1.931       .  S
Br343      C1174   1.931   1_455  S
C347        C348   1.413       .  A
C347        C352   1.413       .  A
C347       Br354   1.928       .  S
C348        C349   1.412       .  A
C349        C350   1.408       .  A
C349       Br356   1.929       .  S
C350        C351   1.409       .  A
C350       Br355   1.928   1_545  S
C351        C352   1.411       .  A
C352       Br353   1.926       .  S
C357        C358   1.411       .  A
C357        C362   1.410       .  A
C357       Br364   1.931       .  S
C358        C359   1.411       .  A
C359        C360   1.409       .  A
C359       Br366   1.921       .  S
C360        C361   1.410       .  A
C360       Br365   1.933       .  S
C361        C362   1.411       .  A
C362       Br363   1.927       .  S
C367        C368   1.421       .  A
C367        C372   1.411       .  A
C367       Br374   1.924       .  S
C368        C484   1.499   1_554  S
C368        C369   1.420       .  A
C369        C370   1.408       .  A
C369       Br792   1.928   1_554  S
C370        C371   1.404       .  A
C370       Br375   1.928       .  S
C371        C372   1.404       .  A
C372       Br373   1.933       .  S
Br376       C785   1.929       .  S
C377        C378   1.418       .  A
C377        C382   1.408       .  A
C377       Br384   1.930       .  S
C378        C379   1.423       .  A
C379        C380   1.411       .  A
C379       Br386   1.927       .  S
C380        C381   1.405       .  A
C380       Br385   1.934       .  S
C381        C382   1.405       .  A
C382       Br383   1.927       .  S
C387        C388   1.419       .  A
C387        C392   1.409       .  A
C387       Br394   1.930       .  S
C388        C389   1.415       .  A
C389        C390   1.419       .  A
C389       Br396   1.927       .  S
C390        C391   1.416       .  A
C390       Br395   1.930       .  S
C391        C392   1.409       .  A
C392       Br393   1.933       .  S
C397        C398   1.413       .  A
C397        C402   1.412       .  A
C397       Br404   1.931       .  S
C398        C399   1.426       .  A
C399        C400   1.405       .  A
C399       Br406   1.931       .  S
C400        C401   1.400       .  A
C400       Br405   1.933       .  S
C401        C402   1.416       .  A
C402       Br403   1.932       .  S
C407        C408   1.412       .  A
C407        C412   1.412       .  A
C407       Br414   1.931       .  S
C408        C958   1.491   1_455  S
C408        C409   1.422       .  A
C409        C410   1.403       .  A
C409      Br1248   1.933   1_455  S
C410        C411   1.404       .  A
C410       Br415   1.933       .  S
C411        C412   1.416       .  A
C412       Br413   1.932       .  S
Br416      C1241   1.933       .  S
O417        C432   1.244       .  A
O417       Al425   1.839       .  S
C418        O428   1.274       .  A
C418        O419   1.279       .  A
C418        C794   1.497       .  S
O419       Al421   1.958       .  S
O420        C422   1.261       .  A
O420       Al421   1.892       .  S
Al421       O429   1.940       .  S
Al421       O431   1.942       .  S
Al421       O430   1.786       .  S
C422        O435   1.267       .  A
C422        C774   1.483       .  S
O423        C433   1.240       .  A
O423       Al425   1.878       .  S
O424        C437   1.271       .  A
O424       Al434   1.884       .  S
Al425       O438   1.959       .  S
Al425       O435   1.922       .  S
Al425       O430   1.778       .  S
O426        C433   1.247       .  A
O426       Al434   1.896       .  S
O427        C436   1.251       .  A
O427       Al434   1.892       .  S
O428       Al434   1.902       .  S
O429        C436   1.260       .  A
O430       Al434   1.781       .  S
O431        C432   1.264       .  A
C432        C814   1.493       .  S
C433        C827   1.480       .  S
C436        C804   1.503       .  S
C437        O438   1.285       .  A
C437        C787   1.476       .  S
O439        C454   1.252       .  A
O439       Al447   1.863       .  S
C440        O450   1.274       .  A
C440        O441   1.283       .  A
C440        C747   1.472       .  S
O441       Al443   1.955       .  S
O442        C444   1.254       .  A
O442       Al443   1.882       .  S
Al443       O451   1.926       .  S
Al443       O453   1.948       .  S
Al443       O452   1.778       .  S
C444        O457   1.266       .  A
C444        C724   1.490       .  S
O445        C455   1.247   1_545  A
O445       Al447   1.910   1_545  S
O446        C459   1.277       .  A
O446       Al456   1.893       .  S
Al447       O460   1.944       .  S
Al447       O457   1.916       .  S
Al447       O452   1.770       .  S
O448        C455   1.248       .  A
O448       Al456   1.903       .  S
O449        C458   1.248       .  A
O449       Al456   1.900       .  S
O450       Al456   1.889       .  S
O451        C458   1.256       .  A
O452       Al456   1.784       .  S
O453        C454   1.268       .  A
C454       C1589   1.495   1_455  S
C455        C767   1.486   1_565  S
C458        C807   1.492       .  S
C459        O460   1.284       .  A
C459        C737   1.476       .  S
O461        C476   1.287       .  A
O461       Al469   1.947       .  S
C462        O472   1.282       .  A
C462        O463   1.274       .  A
O463       Al465   1.890       .  S
O464        C466   1.249       .  A
O464       Al465   1.902       .  S
Al465       O473   1.912       .  S
Al465       O475   1.892       .  S
Al465       O474   1.781       .  S
C466        O479   1.247   1_565  A
C466        C694   1.486   1_565  S
O467        C477   1.268       .  A
O467       Al469   1.923       .  S
O468        C481   1.263       .  A
O468       Al478   1.927       .  S
Al469       O482   1.861       .  S
Al469       O479   1.914   1_565  S
Al469       O474   1.765       .  S
O470        C477   1.255       .  A
O470       Al478   1.882       .  S
O471        C480   1.254       .  A
O471       Al478   1.917       .  S
O472       Al478   1.946       .  S
O473        C480   1.249       .  A
O474       Al478   1.771       .  S
O475        C476   1.277       .  A
C476        C744   1.477       .  S
C477        C714   1.497       .  S
C480        C687   1.492       .  S
C481        O482   1.252       .  A
C481        C704   1.483       .  S
O483        C498   1.282       .  A
O483       Al491   1.956       .  S
C484        O494   1.280       .  A
C484        O485   1.270       .  A
O485       Al487   1.895       .  S
O486        C488   1.252       .  A
O486       Al487   1.913       .  S
Al487       O495   1.899       .  S
Al487       O497   1.879       .  S
Al487       O496   1.787       .  S
C488        O501   1.241       .  A
C488        C657   1.491       .  S
O489        C499   1.266       .  A
O489       Al491   1.918       .  S
O490       C1335   1.267       .  A
O490       Al500   1.956       .  S
Al491       O504   1.830       .  S
Al491       O501   1.885       .  S
Al491       O496   1.781       .  S
O492        C499   1.255       .  A
O492       Al500   1.868       .  S
O493        C502   1.259       .  A
O493       Al500   1.926       .  S
O494       Al500   1.967       .  S
O495        C502   1.254       .  A
O496       Al500   1.795       .  S
O497        C498   1.267       .  A
C498        C797   1.477       .  S
C499        C677   1.475       .  S
C502        C684   1.508       .  S
C503       O1322   1.267       .  A
C503       O1336   1.243       .  A
C503        C667   1.500       .  S
O504       C1335   1.243       .  A
O505        C520   1.251       .  A
O505       Al513   1.859       .  S
C506        O516   1.272       .  A
C506        O507   1.283       .  A
O507       Al509   1.960       .  S
O508        C510   1.254       .  A
O508       Al509   1.876       .  S
Al509       O517   1.912       .  S
Al509       O519   1.930       .  S
Al509       O518   1.779       .  S
C510        O523   1.270       .  A
C510        C717   1.495       .  S
O511        C521   1.250       .  A
O511       Al513   1.921   1_565  S
O512        C525   1.277       .  A
O512       Al522   1.896       .  S
Al513       O526   1.945       .  S
Al513       O523   1.924       .  S
Al513       O518   1.768       .  S
O514        C521   1.248   1_545  A
O514       Al522   1.897       .  S
O515        C524   1.248       .  A
O515       Al522   1.914       .  S
O516       Al522   1.888       .  S
O517        C524   1.253       .  A
O518       Al522   1.783       .  S
O519        C520   1.263       .  A
C520        C764   1.485       .  S
C521        C754   1.490       .  S
C524        C644   1.510       .  S
C525        O526   1.284       .  A
C525        C634   1.483       .  S
O527        C542   1.241       .  A
O527       Al535   1.830       .  S
C528        O538   1.270       .  A
C528        O529   1.276       .  A
O529       Al531   1.958       .  S
O530        C532   1.260       .  A
O530       Al531   1.876       .  S
Al531       O539   1.917       .  S
Al531       O541   1.933       .  S
Al531       O540   1.785       .  S
C532        O545   1.269       .  A
C532        C674   1.477       .  S
O533        C543   1.238       .  A
O533       Al535   1.866       .  S
O534        C547   1.270       .  A
O534       Al544   1.889       .  S
Al535       O548   1.958       .  S
Al535       O545   1.925       .  S
Al535       O540   1.776       .  S
O536        C543   1.251       .  A
O536       Al544   1.907       .  S
O537        C546   1.255       .  A
O537       Al544   1.916       .  S
O538       Al544   1.895       .  S
O539        C546   1.258       .  A
O540       Al544   1.788       .  S
O541        C542   1.259       .  A
C542       C1656   1.491       .  S
C543        C817   1.481       .  S
C546        C647   1.501       .  S
C547        O548   1.283       .  A
C547        C614   1.483       .  S
O549        C564   1.282       .  A
O549       Al557   1.955       .  S
C550        O560   1.280       .  A
C550        O551   1.274       .  A
C550        C617   1.504       .  S
O551       Al553   1.908       .  S
O552        C554   1.250       .  A
O552       Al553   1.906       .  S
Al553       O561   1.899       .  S
Al553       O563   1.884       .  S
Al553       O562   1.783       .  S
C554        O567   1.241       .  A
C554        C664   1.489       .  S
O555        C565   1.265       .  A
O555       Al557   1.918       .  S
O556        C569   1.266       .  A
O556       Al566   1.950       .  S
Al557       O570   1.841       .  S
Al557       O567   1.886       .  S
Al557       O562   1.782       .  S
O558        C565   1.259       .  A
O558       Al566   1.885       .  S
O559        C568   1.260       .  A
O559       Al566   1.944       .  S
O560       Al566   1.964       .  S
O561        C568   1.253       .  A
O562       Al566   1.790       .  S
O563        C564   1.271       .  A
C564        C607   1.474       .  S
C565        C777   1.480       .  S
C568        C594   1.504       .  S
C569        O570   1.246       .  A
C569        C654   1.498       .  S
O571        C586   1.285       .  A
O571       Al579   1.953       .  S
C572        O582   1.281       .  A
C572        O573   1.273       .  A
C572        C637   1.470       .  S
O573       Al575   1.891       .  S
O574        C576   1.248   1_545  A
O574       Al575   1.897       .  S
Al575       O583   1.908       .  S
Al575       O585   1.890       .  S
Al575       O584   1.783       .  S
C576        O589   1.248       .  A
C576        C707   1.483       .  S
O577        C587   1.267       .  A
O577       Al579   1.920       .  S
O578        C591   1.265       .  A
O578       Al588   1.935       .  S
Al579       O592   1.857       .  S
Al579       O589   1.914   1_545  S
Al579       O584   1.770       .  S
O580        C587   1.255       .  A
O580       Al588   1.884       .  S
O581        C590   1.255       .  A
O581       Al588   1.923       .  S
O582       Al588   1.944       .  S
O583        C590   1.249       .  A
O584       Al588   1.778       .  S
O585        C586   1.275       .  A
C586        C627   1.478       .  S
C587        C727   1.492       .  S
C590        C597   1.492       .  S
C591        O592   1.252       .  A
C591       C1529   1.487       .  S
C593        C594   1.416       .  A
C593        C598   1.421       .  A
C593       Br600   1.925       .  S
C594        C595   1.416       .  A
C595        C596   1.407       .  A
C595       Br602   1.926       .  S
C596        C597   1.407       .  A
C596       Br601   1.932       .  S
C597        C598   1.417       .  A
C598       Br599   1.930       .  S
C603        C604   1.416   1_556  A
C603        C608   1.407       .  A
C604        C605   1.413   1_554  A
C605        C606   1.410       .  A
C606        C607   1.409       .  A
C606       Br611   1.926       .  S
C607        C608   1.404       .  A
C608       Br609   1.933       .  S
C613        C614   1.405       .  A
C613        C618   1.412       .  A
C613       Br620   1.933       .  S
C614        C615   1.406       .  A
C615        C616   1.412       .  A
C615       Br622   1.930       .  S
C616        C617   1.421       .  A
C616       Br621   1.930       .  S
C617        C618   1.424       .  A
C618       Br619   1.926       .  S
C623        C624   1.405       .  A
C623        C628   1.410       .  A
C623       Br630   1.928       .  S
C624        C625   1.413       .  A
C625        C626   1.403       .  A
C626        C627   1.404       .  A
C626       Br631   1.926   1_545  S
C627        C628   1.415       .  A
C628       Br629   1.927       .  S
C633        C634   1.410       .  A
C633        C638   1.405       .  A
C633       Br640   1.926   1_545  S
C634        C635   1.418       .  A
C635        C636   1.407       .  A
C635       Br642   1.924       .  S
C636        C637   1.402       .  A
C636       Br641   1.930       .  S
C637        C638   1.410       .  A
C638       Br639   1.928   1_545  S
C643        C644   1.424       .  A
C643        C648   1.413       .  A
C643       Br650   1.937       .  S
C644        C645   1.420       .  A
C645        C646   1.412       .  A
C645       Br652   1.938       .  S
C646        C647   1.418       .  A
C646       Br651   1.937       .  S
C647        C648   1.415       .  A
C648       Br649   1.936       .  S
C653        C654   1.412       .  A
C653        C658   1.416       .  A
C653       Br660   1.930       .  S
C654        C655   1.422       .  A
C655        C656   1.407       .  A
C655       Br662   1.932       .  S
C656        C657   1.405       .  A
C656       Br661   1.932       .  S
C657        C658   1.419       .  A
C658       Br659   1.930       .  S
C663        C664   1.419       .  A
C663        C668   1.416       .  A
C663       Br670   1.929       .  S
C664        C665   1.405       .  A
C665        C666   1.405       .  A
C665       Br672   1.932       .  S
C666        C667   1.425       .  A
C666      Br1503   1.935       .  S
C667        C668   1.411       .  A
C668       Br669   1.927       .  S
Br671      C1498   1.935   1_455  S
C673        C678   1.410   1_554  A
C673       Br680   1.932       .  S
C674       C1507   1.410       .  A
C675       C1506   1.410   1_455  A
C675        C676   1.405       .  A
C675       Br682   1.922       .  S
C676       Br681   1.932       .  S
C677       C1510   1.414   1_455  A
C678       C1509   1.414       .  A
C678       Br679   1.931       .  S
C683        C684   1.419       .  A
C683        C688   1.419       .  A
C683       Br690   1.931       .  S
C684        C685   1.421       .  A
C685        C686   1.407       .  A
C685       Br692   1.928       .  S
C686        C687   1.409       .  A
C686       Br691   1.937       .  S
C687        C688   1.416       .  A
C688       Br689   1.932       .  S
C693        C694   1.411       .  A
C693        C698   1.415       .  A
C693       Br700   1.926       .  S
C694        C695   1.406       .  A
C695        C696   1.406       .  A
C695       Br702   1.928   1_545  S
C696        C697   1.414       .  A
C696       Br701   1.930   1_455  S
C697       C1423   1.487   1_455  S
C697        C698   1.415       .  A
C698       Br699   1.929       .  S
C703        C704   1.414       .  A
C703        C708   1.407       .  A
C703       Br710   1.931       .  S
C704        C705   1.414       .  A
C705        C706   1.412       .  A
C705       Br712   1.928       .  S
C706        C707   1.408       .  A
C706       Br711   1.926       .  S
C707        C708   1.408       .  A
C708       Br709   1.927       .  S
C713        C714   1.413   1_545  A
C713       Br720   1.939       .  S
C714        C715   1.425   1_556  A
C715       Br722   1.935       .  S
C716        C717   1.410   1_565  A
C716       Br721   1.940       .  S
C717        C718   1.424       .  A
C718       Br719   1.936       .  S
C723        C724   1.410   1_645  A
C723        C728   1.410       .  A
C723       Br730   1.938       .  S
C724       C1557   1.421       .  A
C725       C1556   1.421       .  A
C725        C726   1.408       .  A
C725       Br732   1.933       .  S
C726        C727   1.410   1_565  A
C726       Br731   1.937       .  S
C727       C1560   1.422       .  A
C728       C1559   1.422       .  A
C728       Br729   1.932       .  S
C733        C734   1.408       .  A
C733        C738   1.402       .  A
C734        C735   1.403       .  A
C735        C736   1.407       .  A
C735       Br742   1.930       .  S
C736        C737   1.415       .  A
C736       Br741   1.927       .  S
C737        C738   1.407       .  A
C738       Br739   1.924   1_565  S
C743        C744   1.417       .  A
C743        C748   1.412       .  A
C743       Br750   1.929       .  S
C744        C745   1.405       .  A
C745        C746   1.400       .  A
C745       Br752   1.927   1_565  S
C746        C747   1.409       .  A
C746       Br751   1.924       .  S
C747        C748   1.406       .  A
C748       Br749   1.930       .  S
C753        C754   1.406       .  A
C753        C758   1.410       .  A
C753       Br760   1.929   1_565  S
C754        C755   1.409       .  A
C755        C756   1.417       .  A
C755       Br762   1.926       .  S
C756        C757   1.416       .  A
C756       Br761   1.927       .  S
C757       C1286   1.495       .  S
C757        C758   1.418       .  A
C758      Br1591   1.931       .  S
Br759      C1590   1.931   1_455  S
C763        C764   1.413       .  A
C763        C768   1.413       .  A
C763       Br770   1.928       .  S
C764        C765   1.412       .  A
C765        C766   1.408       .  A
C765       Br772   1.929       .  S
C766        C767   1.409       .  A
C766       Br771   1.928   1_545  S
C767        C768   1.411       .  A
C768       Br769   1.926       .  S
C773        C774   1.411       .  A
C773        C778   1.410       .  A
C773       Br780   1.931       .  S
C774        C775   1.411       .  A
C775        C776   1.409       .  A
C775       Br782   1.922       .  S
C776        C777   1.410       .  A
C776       Br781   1.933       .  S
C777        C778   1.411       .  A
C778       Br779   1.927       .  S
C783        C784   1.421       .  A
C783        C788   1.411       .  A
C783       Br790   1.924       .  S
C784        C785   1.420       .  A
C785        C786   1.409       .  A
C786        C787   1.404       .  A
C786       Br791   1.928       .  S
C787        C788   1.404       .  A
C788       Br789   1.933       .  S
C793        C794   1.418       .  A
C793        C798   1.408       .  A
C793       Br800   1.930       .  S
C794        C795   1.423       .  A
C795        C796   1.411       .  A
C795       Br802   1.927       .  S
C796        C797   1.405       .  A
C796       Br801   1.934       .  S
C797        C798   1.405       .  A
C798       Br799   1.927       .  S
C803        C804   1.419       .  A
C803        C808   1.409       .  A
C803       Br810   1.930       .  S
C804        C805   1.415       .  A
C805        C806   1.419       .  A
C805       Br812   1.927       .  S
C806        C807   1.416       .  A
C806       Br811   1.930       .  S
C807        C808   1.409       .  A
C808       Br809   1.933       .  S
C813        C814   1.413       .  A
C813        C818   1.412       .  A
C813       Br820   1.931       .  S
C814        C815   1.426       .  A
C815        C816   1.405       .  A
C815       Br822   1.931       .  S
C816        C817   1.400       .  A
C816       Br821   1.933       .  S
C817        C818   1.416       .  A
C818       Br819   1.932       .  S
C823        C824   1.411       .  A
C823        C828   1.412       .  A
C823       Br830   1.931       .  S
C824       C1374   1.491   1_455  S
C824        C825   1.422       .  A
C825        C826   1.404       .  A
C825      Br1664   1.933   1_455  S
C826        C827   1.404       .  A
C826       Br831   1.933       .  S
C827        C828   1.416       .  A
C828       Br829   1.932       .  S
Br832      C1657   1.933       .  S
O833        C848   1.244       .  A
O833       Al841   1.839       .  S
C834        O844   1.274       .  A
C834        O835   1.279       .  A
C834       C1210   1.497       .  S
O835       Al837   1.958       .  S
O836        C838   1.261       .  A
O836       Al837   1.893       .  S
Al837       O845   1.940       .  S
Al837       O847   1.942       .  S
Al837       O846   1.786       .  S
C838        O851   1.267       .  A
C838       C1190   1.484       .  S
O839        C849   1.240       .  A
O839       Al841   1.878       .  S
O840        C853   1.271       .  A
O840       Al850   1.884       .  S
Al841       O854   1.959       .  S
Al841       O851   1.922       .  S
Al841       O846   1.778       .  S
O842        C849   1.247       .  A
O842       Al850   1.896       .  S
O843        C852   1.251       .  A
O843       Al850   1.892       .  S
O844       Al850   1.902       .  S
O845        C852   1.260       .  A
O846       Al850   1.782       .  S
O847        C848   1.264       .  A
C848       C1230   1.493       .  S
C849       C1243   1.479       .  S
C852       C1220   1.503       .  S
C853        O854   1.284       .  A
C853       C1203   1.476       .  S
O855        C870   1.252       .  A
O855       Al863   1.863       .  S
C856        O866   1.274       .  A
C856        O857   1.283       .  A
C856       C1163   1.472       .  S
O857       Al859   1.955       .  S
O858        C860   1.254       .  A
O858       Al859   1.882       .  S
Al859       O867   1.926       .  S
Al859       O869   1.947       .  S
Al859       O868   1.778       .  S
C860        O873   1.266       .  A
C860       C1140   1.490       .  S
O861        C871   1.247   1_545  A
O861       Al863   1.911   1_545  S
O862        C875   1.277       .  A
O862       Al872   1.893       .  S
Al863       O876   1.944       .  S
Al863       O873   1.916       .  S
Al863       O868   1.770       .  S
O864        C871   1.248       .  A
O864       Al872   1.903       .  S
O865        C874   1.248       .  A
O865       Al872   1.900       .  S
O866       Al872   1.889       .  S
O867        C874   1.256       .  A
O868       Al872   1.784       .  S
O869        C870   1.268       .  A
C871       C1183   1.486   1_565  S
C874       C1223   1.492       .  S
C875        O876   1.284       .  A
C875       C1153   1.476       .  S
O877        C892   1.287       .  A
O877       Al885   1.948       .  S
C878        O888   1.282       .  A
C878        O879   1.274       .  A
C878       C1566   1.467       .  S
O879       Al881   1.890       .  S
O880        C882   1.249       .  A
O880       Al881   1.902       .  S
Al881       O889   1.912       .  S
Al881       O891   1.892       .  S
Al881       O890   1.781       .  S
C882        O895   1.247   1_565  A
C882       C1110   1.486   1_565  S
O883        C893   1.268       .  A
O883       Al885   1.923       .  S
O884        C897   1.262       .  A
O884       Al894   1.926       .  S
Al885       O898   1.861       .  S
Al885       O895   1.914   1_565  S
Al885       O890   1.764       .  S
O886        C893   1.255       .  A
O886       Al894   1.882       .  S
O887        C896   1.253       .  A
O887       Al894   1.917       .  S
O888       Al894   1.946       .  S
O889        C896   1.249       .  A
O890       Al894   1.771       .  S
O891        C892   1.277       .  A
C892       C1160   1.477       .  S
C893       C1130   1.497       .  S
C896       C1103   1.492       .  S
C897        O898   1.252       .  A
C897       C1120   1.482       .  S
O899        C914   1.282       .  A
O899       Al907   1.956       .  S
C900        O910   1.280       .  A
C900        O901   1.270       .  A
C900       C1616   1.499       .  S
O901       Al903   1.895       .  S
O902        C904   1.252       .  A
O902       Al903   1.913       .  S
Al903       O911   1.899       .  S
Al903       O913   1.879       .  S
Al903       O912   1.787       .  S
C904        O917   1.241       .  A
C904       C1073   1.491       .  S
O905        C915   1.266       .  A
O905       Al907   1.918       .  S
O906       Al916   1.956       .  S
Al907       O920   1.829       .  S
Al907       O917   1.885       .  S
Al907       O912   1.780       .  S
O908        C915   1.255       .  A
O908       Al916   1.868       .  S
O909        C918   1.259       .  A
O909       Al916   1.926       .  S
O910       Al916   1.967       .  S
O911        C918   1.254       .  A
O912       Al916   1.795       .  S
O913        C914   1.267       .  A
C914       C1213   1.477       .  S
C915       C1093   1.475       .  S
C918       C1100   1.507       .  S
C919       C1083   1.500   1_455  S
O921        C936   1.251       .  A
O921       Al929   1.860       .  S
C922        O932   1.272       .  A
C922        O923   1.283       .  A
C922       C1456   1.477   1_554  S
O923       Al925   1.960       .  S
O924        C926   1.254       .  A
O924       Al925   1.876       .  S
Al925       O933   1.912       .  S
Al925       O935   1.931       .  S
Al925       O934   1.779       .  S
C926        O939   1.270       .  A
C926       C1133   1.494       .  S
O927        C937   1.250       .  A
O927       Al929   1.921   1_565  S
O928        C941   1.277       .  A
O928       Al938   1.896       .  S
Al929       O942   1.945       .  S
Al929       O939   1.924       .  S
Al929       O934   1.768       .  S
O930        C937   1.248   1_545  A
O930       Al938   1.897       .  S
O931        C940   1.248       .  A
O931       Al938   1.914       .  S
O932       Al938   1.887       .  S
O933        C940   1.253       .  A
O934       Al938   1.782       .  S
O935        C936   1.263       .  A
C936       C1180   1.485       .  S
C937       C1170   1.490       .  S
C940       C1060   1.510       .  S
C941        O942   1.284       .  A
C941       C1050   1.483       .  S
O943        C958   1.241       .  A
O943       Al951   1.830       .  S
C944        O954   1.270       .  A
C944        O945   1.276       .  A
C944       C1436   1.490       .  S
O945       Al947   1.958       .  S
O946        C948   1.260       .  A
O946       Al947   1.876       .  S
Al947       O955   1.917       .  S
Al947       O957   1.933       .  S
Al947       O956   1.785       .  S
C948        O961   1.269       .  A
C948       C1090   1.477       .  S
O949        C959   1.238       .  A
O949       Al951   1.865       .  S
O950        C963   1.270       .  A
O950       Al960   1.889       .  S
Al951       O964   1.958       .  S
Al951       O961   1.925       .  S
Al951       O956   1.777       .  S
O952        C959   1.251       .  A
O952       Al960   1.907       .  S
O953        C962   1.255       .  A
O953       Al960   1.917       .  S
O954       Al960   1.895       .  S
O955        C962   1.258       .  A
O956       Al960   1.788       .  S
O957        C958   1.259       .  A
C959       C1233   1.481       .  S
C962       C1063   1.501       .  S
C963        O964   1.283       .  A
C963       C1030   1.483       .  S
O965        C980   1.282       .  A
O965       Al973   1.955       .  S
C966        O976   1.281       .  A
C966        O967   1.274       .  A
C966       C1033   1.504       .  S
O967       Al969   1.908       .  S
O968        C970   1.250       .  A
O968       Al969   1.906       .  S
Al969       O977   1.899       .  S
Al969       O979   1.884       .  S
Al969       O978   1.783       .  S
C970        O983   1.241       .  A
C970       C1080   1.489       .  S
O971        C981   1.265       .  A
O971       Al973   1.918       .  S
O972        C985   1.266       .  A
O972       Al982   1.950       .  S
Al973       O986   1.841       .  S
Al973       O983   1.887       .  S
Al973       O978   1.782       .  S
O974        C981   1.259       .  A
O974       Al982   1.885       .  S
O975        C984   1.260       .  A
O975       Al982   1.944       .  S
O976       Al982   1.964       .  S
O977        C984   1.253       .  A
O978       Al982   1.790       .  S
O979        C980   1.271       .  A
C980       C1023   1.474       .  S
C981       C1193   1.480       .  S
C984       C1010   1.504       .  S
C985        O986   1.246       .  A
C985       C1070   1.498       .  S
O987       C1002   1.285       .  A
O987       Al995   1.953       .  S
C988        O998   1.281       .  A
C988        O989   1.273       .  A
C988       C1053   1.470       .  S
O989       Al991   1.891       .  S
O990        C992   1.248   1_545  A
O990       Al991   1.897       .  S
Al991       O999   1.908       .  S
Al991      O1001   1.890       .  S
Al991      O1000   1.783       .  S
C992       O1005   1.248       .  A
C992       C1123   1.483       .  S
O993       C1003   1.267       .  A
O993       Al995   1.920       .  S
O994       C1007   1.265       .  A
O994      Al1004   1.935       .  S
Al995      O1008   1.857       .  S
Al995      O1005   1.914   1_545  S
Al995      O1000   1.770       .  S
O996       C1003   1.255       .  A
O996      Al1004   1.884       .  S
O997       C1006   1.256       .  A
O997      Al1004   1.923       .  S
O998      Al1004   1.944       .  S
O999       C1006   1.249       .  A
O1000     Al1004   1.778       .  S
O1001      C1002   1.275       .  A
C1002      C1043   1.478       .  S
C1003      C1143   1.492       .  S
C1006      C1013   1.492       .  S
C1007      O1008   1.252       .  A
C1009      C1010   1.416       .  A
C1009      C1014   1.422       .  A
C1009     Br1016   1.925       .  S
C1010      C1011   1.416       .  A
C1011      C1012   1.407       .  A
C1011     Br1018   1.926       .  S
C1012      C1013   1.407       .  A
C1012     Br1017   1.932       .  S
C1013      C1014   1.417       .  A
C1014     Br1015   1.930       .  S
C1019      C1020   1.416       .  A
C1019      C1024   1.407       .  A
C1019     Br1442   1.921       .  S
C1020      C1360   1.490       .  S
C1020      C1021   1.413       .  A
C1021      C1022   1.410       .  A
C1021     Br1444   1.930       .  S
C1022      C1023   1.409       .  A
C1022     Br1027   1.926       .  S
C1023      C1024   1.404       .  A
C1024     Br1025   1.933       .  S
Br1026     C1435   1.921       .  S
Br1028     C1437   1.930   1_554  S
C1029      C1030   1.405       .  A
C1029      C1034   1.412       .  A
C1029     Br1036   1.933       .  S
C1030      C1031   1.406       .  A
C1031      C1032   1.412       .  A
C1031     Br1038   1.930       .  S
C1032      C1033   1.421       .  A
C1032     Br1037   1.930       .  S
C1033      C1034   1.424       .  A
C1034     Br1035   1.926       .  S
C1039      C1040   1.405       .  A
C1039      C1044   1.410       .  A
C1039     Br1046   1.928       .  S
C1040      C1338   1.477       .  S
C1040      C1041   1.413       .  A
C1041      C1042   1.403       .  A
C1041     Br1464   1.922       .  S
C1042      C1043   1.404       .  A
C1042     Br1047   1.926   1_545  S
C1043      C1044   1.415       .  A
C1044     Br1045   1.927       .  S
Br1048     C1457   1.922   1_554  S
C1049      C1050   1.410       .  A
C1049      C1054   1.405       .  A
C1049     Br1056   1.926   1_545  S
C1050      C1051   1.418       .  A
C1051      C1052   1.407       .  A
C1051     Br1058   1.924       .  S
C1052      C1053   1.402       .  A
C1052     Br1057   1.930       .  S
C1053      C1054   1.410       .  A
C1054     Br1055   1.928   1_545  S
C1059      C1060   1.425       .  A
C1059      C1064   1.413       .  A
C1059     Br1066   1.937       .  S
C1060      C1061   1.421       .  A
C1061      C1062   1.412       .  A
C1061     Br1068   1.938       .  S
C1062      C1063   1.418       .  A
C1062     Br1067   1.937       .  S
C1063      C1064   1.415       .  A
C1064     Br1065   1.936       .  S
C1069      C1070   1.412       .  A
C1069      C1074   1.416       .  A
C1069     Br1076   1.930       .  S
C1070      C1071   1.422       .  A
C1071      C1072   1.407       .  A
C1071     Br1078   1.932       .  S
C1072      C1073   1.405       .  A
C1072     Br1077   1.932       .  S
C1073      C1074   1.419       .  A
C1074     Br1075   1.930       .  S
C1079      C1080   1.419       .  A
C1079      C1084   1.416       .  A
C1079     Br1086   1.929       .  S
C1080      C1081   1.405       .  A
C1081      C1082   1.405       .  A
C1081     Br1088   1.932       .  S
C1082      C1083   1.425       .  A
C1083      C1084   1.411       .  A
C1084     Br1085   1.927       .  S
C1089      C1506   1.410       .  A
C1089      C1094   1.410       .  A
C1089     Br1096   1.932       .  S
C1090      C1505   1.410       .  A
C1091      C1092   1.405   1_554  A
C1091     Br1098   1.922       .  S
C1092      C1509   1.408       .  A
C1092     Br1097   1.932       .  S
C1093      C1508   1.408       .  A
C1094     Br1095   1.931       .  S
C1099      C1100   1.419       .  A
C1099      C1104   1.419       .  A
C1099     Br1106   1.931       .  S
C1100      C1101   1.421       .  A
C1101      C1102   1.407       .  A
C1101     Br1108   1.928       .  S
C1102      C1103   1.409       .  A
C1102     Br1107   1.937       .  S
C1103      C1104   1.416       .  A
C1104     Br1105   1.932       .  S
C1109      C1110   1.411       .  A
C1109      C1114   1.415       .  A
C1109     Br1116   1.926       .  S
C1110      C1111   1.406       .  A
C1111      C1112   1.406       .  A
C1111     Br1118   1.928   1_545  S
C1112      C1113   1.414       .  A
C1112     Br1117   1.930       .  S
C1113      C1114   1.415       .  A
C1114     Br1115   1.929       .  S
C1119      C1120   1.414       .  A
C1119      C1124   1.407       .  A
C1119     Br1126   1.931       .  S
C1120      C1121   1.414       .  A
C1121      C1122   1.412       .  A
C1121     Br1128   1.928       .  S
C1122      C1123   1.408       .  A
C1122     Br1127   1.926       .  S
C1123      C1124   1.408       .  A
C1124     Br1125   1.927       .  S
C1129      C1130   1.413   1_545  A
C1129      C1550   1.411       .  A
C1129     Br1136   1.939       .  S
C1130      C1131   1.425       .  A
C1131      C1548   1.409       .  A
C1131     Br1138   1.936       .  S
C1132      C1547   1.409       .  A
C1132      C1133   1.410   1_565  A
C1132     Br1137   1.940       .  S
C1133      C1134   1.424   1_554  A
C1134      C1545   1.411       .  A
C1134     Br1135   1.936       .  S
C1139      C1140   1.410   1_545  A
C1139      C1144   1.409       .  A
C1139     Br1146   1.938       .  S
C1141      C1142   1.408   1_455  A
C1141     Br1148   1.933       .  S
C1142      C1143   1.410   1_565  A
C1142     Br1147   1.937   1_655  S
C1144     Br1145   1.932       .  S
C1149      C1150   1.408   1_554  A
C1149      C1154   1.402       .  A
C1149     Br1572   1.927   1_554  S
C1150      C1294   1.466       .  S
C1150      C1151   1.403   1_556  A
C1151      C1152   1.407       .  A
C1151     Br1158   1.930   1_554  S
C1152      C1153   1.415       .  A
C1152     Br1157   1.927       .  S
C1153      C1154   1.407       .  A
C1154     Br1155   1.924   1_565  S
Br1156     C1565   1.927       .  S
C1159      C1160   1.417       .  A
C1159      C1164   1.412       .  A
C1159     Br1166   1.929       .  S
C1160      C1161   1.405       .  A
C1161      C1162   1.400       .  A
C1161     Br1168   1.927   1_565  S
C1162      C1163   1.409       .  A
C1162     Br1167   1.924       .  S
C1163      C1164   1.406       .  A
C1164     Br1165   1.930       .  S
C1169      C1170   1.406       .  A
C1169      C1174   1.410       .  A
C1169     Br1176   1.929   1_565  S
C1170      C1171   1.409       .  A
C1171      C1172   1.416       .  A
C1171     Br1178   1.926       .  S
C1172      C1173   1.416       .  A
C1172     Br1177   1.927       .  S
C1173      C1174   1.418       .  A
C1179      C1180   1.413       .  A
C1179      C1184   1.413       .  A
C1179     Br1186   1.928       .  S
C1180      C1181   1.412       .  A
C1181      C1182   1.408       .  A
C1181     Br1188   1.928       .  S
C1182      C1183   1.409       .  A
C1182     Br1187   1.928   1_545  S
C1183      C1184   1.411       .  A
C1184     Br1185   1.926       .  S
C1189      C1190   1.411       .  A
C1189      C1194   1.411       .  A
C1189     Br1196   1.931       .  S
C1190      C1191   1.411       .  A
C1191      C1192   1.409       .  A
C1191     Br1198   1.922       .  S
C1192      C1193   1.410       .  A
C1192     Br1197   1.933       .  S
C1193      C1194   1.411       .  A
C1194     Br1195   1.927       .  S
C1199      C1200   1.421       .  A
C1199      C1204   1.411       .  A
C1199     Br1206   1.924       .  S
C1200      C1316   1.499   1_554  S
C1200      C1201   1.420       .  A
C1201      C1202   1.408       .  A
C1201     Br1624   1.928   1_554  S
C1202      C1203   1.404       .  A
C1202     Br1207   1.928       .  S
C1203      C1204   1.404       .  A
C1204     Br1205   1.933       .  S
Br1208     C1617   1.928       .  S
C1209      C1210   1.418       .  A
C1209      C1214   1.408       .  A
C1209     Br1216   1.930       .  S
C1210      C1211   1.423       .  A
C1211      C1212   1.411       .  A
C1211     Br1218   1.927       .  S
C1212      C1213   1.405       .  A
C1212     Br1217   1.934       .  S
C1213      C1214   1.405       .  A
C1214     Br1215   1.927       .  S
C1219      C1220   1.419       .  A
C1219      C1224   1.409       .  A
C1219     Br1226   1.930       .  S
C1220      C1221   1.416       .  A
C1221      C1222   1.419       .  A
C1221     Br1228   1.927       .  S
C1222      C1223   1.416       .  A
C1222     Br1227   1.930       .  S
C1223      C1224   1.409       .  A
C1224     Br1225   1.933       .  S
C1229      C1230   1.413       .  A
C1229      C1234   1.412       .  A
C1229     Br1236   1.931       .  S
C1230      C1231   1.426       .  A
C1231      C1232   1.405       .  A
C1231     Br1238   1.931       .  S
C1232      C1233   1.400       .  A
C1232     Br1237   1.933       .  S
C1233      C1234   1.416       .  A
C1234     Br1235   1.932       .  S
C1239      C1240   1.411       .  A
C1239      C1244   1.412       .  A
C1239     Br1246   1.931       .  S
C1240      C1241   1.422       .  A
C1241      C1242   1.404       .  A
C1242      C1243   1.404       .  A
C1242     Br1247   1.933       .  S
C1243      C1244   1.416       .  A
C1244     Br1245   1.932       .  S
O1249      C1264   1.244       .  A
O1249     Al1257   1.839       .  S
C1250      O1260   1.274       .  A
C1250      O1251   1.279       .  A
C1250      C1626   1.497       .  S
O1251     Al1253   1.958       .  S
O1252      C1254   1.261       .  A
O1252     Al1253   1.892       .  S
Al1253     O1261   1.940       .  S
Al1253     O1263   1.942       .  S
Al1253     O1262   1.786       .  S
C1254      O1267   1.267       .  A
C1254      C1606   1.484       .  S
O1255      C1265   1.239       .  A
O1255     Al1257   1.878       .  S
O1256      C1269   1.271       .  A
O1256     Al1266   1.884       .  S
Al1257     O1270   1.959       .  S
Al1257     O1267   1.922       .  S
Al1257     O1262   1.778       .  S
O1258      C1265   1.247       .  A
O1258     Al1266   1.896       .  S
O1259      C1268   1.251       .  A
O1259     Al1266   1.892       .  S
O1260     Al1266   1.902       .  S
O1261      C1268   1.260       .  A
O1262     Al1266   1.782       .  S
O1263      C1264   1.264       .  A
C1264      C1646   1.493       .  S
C1265      C1659   1.479       .  S
C1268      C1636   1.503       .  S
C1269      O1270   1.285       .  A
C1269      C1619   1.476       .  S
O1271      C1286   1.252       .  A
O1271     Al1279   1.863       .  S
C1272      O1282   1.274       .  A
C1272      O1273   1.283       .  A
C1272      C1579   1.472       .  S
O1273     Al1275   1.955       .  S
O1274      C1276   1.254       .  A
O1274     Al1275   1.882       .  S
Al1275     O1283   1.926       .  S
Al1275     O1285   1.948       .  S
Al1275     O1284   1.778       .  S
C1276      O1289   1.266       .  A
C1276      C1556   1.490       .  S
O1277      C1287   1.247   1_545  A
O1277     Al1279   1.911   1_545  S
O1278      C1291   1.277       .  A
O1278     Al1288   1.893       .  S
Al1279     O1292   1.944       .  S
Al1279     O1289   1.916       .  S
Al1279     O1284   1.770       .  S
O1280      C1287   1.248       .  A
O1280     Al1288   1.903       .  S
O1281      C1290   1.248       .  A
O1281     Al1288   1.900       .  S
O1282     Al1288   1.889       .  S
O1283      C1290   1.256       .  A
O1284     Al1288   1.784       .  S
O1285      C1286   1.268       .  A
C1287      C1599   1.486   1_565  S
C1290      C1639   1.492       .  S
C1291      O1292   1.284       .  A
C1291      C1569   1.476       .  S
O1293      C1308   1.287       .  A
O1293     Al1301   1.947       .  S
C1294      O1304   1.282       .  A
C1294      O1295   1.274       .  A
O1295     Al1297   1.890       .  S
O1296      C1298   1.249       .  A
O1296     Al1297   1.902       .  S
Al1297     O1305   1.912       .  S
Al1297     O1307   1.892       .  S
Al1297     O1306   1.781       .  S
C1298      O1311   1.247   1_565  A
C1298      C1526   1.486   1_565  S
O1299      C1309   1.268       .  A
O1299     Al1301   1.923       .  S
O1300      C1313   1.263       .  A
O1300     Al1310   1.927       .  S
Al1301     O1314   1.861       .  S
Al1301     O1311   1.914   1_565  S
Al1301     O1306   1.765       .  S
O1302      C1309   1.255       .  A
O1302     Al1310   1.882       .  S
O1303      C1312   1.254       .  A
O1303     Al1310   1.918       .  S
O1304     Al1310   1.946       .  S
O1305      C1312   1.249       .  A
O1306     Al1310   1.771       .  S
O1307      C1308   1.277       .  A
C1308      C1576   1.477       .  S
C1309      C1546   1.497       .  S
C1312      C1519   1.492       .  S
C1313      O1314   1.252       .  A
C1313      C1536   1.483       .  S
O1315      C1330   1.282       .  A
O1315     Al1323   1.956       .  S
C1316      O1326   1.280       .  A
C1316      O1317   1.270       .  A
O1317     Al1319   1.895       .  S
O1318      C1320   1.252       .  A
O1318     Al1319   1.913       .  S
Al1319     O1327   1.900       .  S
Al1319     O1329   1.879       .  S
Al1319     O1328   1.787       .  S
C1320      O1333   1.241       .  A
C1320      C1489   1.492       .  S
O1321      C1331   1.266       .  A
O1321     Al1323   1.918       .  S
O1322     Al1332   1.956       .  S
Al1323     O1336   1.830       .  S
Al1323     O1333   1.885       .  S
Al1323     O1328   1.781       .  S
O1324      C1331   1.255       .  A
O1324     Al1332   1.868       .  S
O1325      C1334   1.259       .  A
O1325     Al1332   1.926       .  S
O1326     Al1332   1.967       .  S
O1327      C1334   1.254       .  A
O1328     Al1332   1.795       .  S
O1329      C1330   1.267       .  A
C1330      C1629   1.477       .  S
C1331      C1509   1.475       .  S
C1334      C1516   1.507       .  S
C1335      C1499   1.500   1_455  S
O1337      C1352   1.251       .  A
O1337     Al1345   1.860       .  S
C1338      O1348   1.272       .  A
C1338      O1339   1.283       .  A
O1339     Al1341   1.961       .  S
O1340      C1342   1.254       .  A
O1340     Al1341   1.875       .  S
Al1341     O1349   1.911       .  S
Al1341     O1351   1.930       .  S
Al1341     O1350   1.779       .  S
C1342      O1355   1.270       .  A
C1342      C1549   1.494       .  S
O1343      C1353   1.250       .  A
O1343     Al1345   1.921   1_565  S
O1344      C1357   1.277       .  A
O1344     Al1354   1.896       .  S
Al1345     O1358   1.944       .  S
Al1345     O1355   1.924       .  S
Al1345     O1350   1.768       .  S
O1346      C1353   1.248   1_545  A
O1346     Al1354   1.897       .  S
O1347      C1356   1.248       .  A
O1347     Al1354   1.915       .  S
O1348     Al1354   1.887       .  S
O1349      C1356   1.253       .  A
O1350     Al1354   1.783       .  S
O1351      C1352   1.263       .  A
C1352      C1596   1.485       .  S
C1353      C1586   1.490       .  S
C1356      C1476   1.510       .  S
C1357      O1358   1.284       .  A
C1357      C1466   1.483       .  S
O1359      C1374   1.241       .  A
O1359     Al1367   1.830       .  S
C1360      O1370   1.270       .  A
C1360      O1361   1.276       .  A
O1361     Al1363   1.958       .  S
O1362      C1364   1.260       .  A
O1362     Al1363   1.876       .  S
Al1363     O1371   1.917       .  S
Al1363     O1373   1.933       .  S
Al1363     O1372   1.785       .  S
C1364      O1377   1.269       .  A
C1364      C1506   1.477       .  S
O1365      C1375   1.237       .  A
O1365     Al1367   1.865       .  S
O1366      C1379   1.270       .  A
O1366     Al1376   1.890       .  S
Al1367     O1380   1.957       .  S
Al1367     O1377   1.925       .  S
Al1367     O1372   1.777       .  S
O1368      C1375   1.251       .  A
O1368     Al1376   1.908       .  S
O1369      C1378   1.255       .  A
O1369     Al1376   1.917       .  S
O1370     Al1376   1.896       .  S
O1371      C1378   1.258       .  A
O1372     Al1376   1.788       .  S
O1373      C1374   1.259       .  A
C1375      C1649   1.481       .  S
C1378      C1479   1.501       .  S
C1379      O1380   1.283       .  A
C1379      C1446   1.483       .  S
O1381      C1396   1.282       .  A
O1381     Al1389   1.954       .  S
C1382      O1392   1.281       .  A
C1382      O1383   1.274       .  A
C1382      C1449   1.504       .  S
O1383     Al1385   1.908       .  S
O1384      C1386   1.250       .  A
O1384     Al1385   1.906       .  S
Al1385     O1393   1.899       .  S
Al1385     O1395   1.884       .  S
Al1385     O1394   1.783       .  S
C1386      O1399   1.241       .  A
C1386      C1496   1.490       .  S
O1387      C1397   1.265       .  A
O1387     Al1389   1.917       .  S
O1388      C1401   1.266       .  A
O1388     Al1398   1.950       .  S
Al1389     O1402   1.841       .  S
Al1389     O1399   1.887       .  S
Al1389     O1394   1.782       .  S
O1390      C1397   1.259       .  A
O1390     Al1398   1.885       .  S
O1391      C1400   1.260       .  A
O1391     Al1398   1.944       .  S
O1392     Al1398   1.964       .  S
O1393      C1400   1.253       .  A
O1394     Al1398   1.790       .  S
O1395      C1396   1.271       .  A
C1396      C1439   1.473       .  S
C1397      C1609   1.480       .  S
C1400      C1426   1.504       .  S
C1401      O1402   1.246       .  A
C1401      C1486   1.498       .  S
O1403      C1418   1.285       .  A
O1403     Al1411   1.953       .  S
C1404      O1414   1.281       .  A
C1404      O1405   1.273       .  A
C1404      C1469   1.470       .  S
O1405     Al1407   1.891       .  S
O1406      C1408   1.248   1_545  A
O1406     Al1407   1.897       .  S
Al1407     O1415   1.908       .  S
Al1407     O1417   1.890       .  S
Al1407     O1416   1.783       .  S
C1408      O1421   1.248       .  A
C1408      C1539   1.483       .  S
O1409      C1419   1.268       .  A
O1409     Al1411   1.920       .  S
O1410      C1423   1.265       .  A
O1410     Al1420   1.935       .  S
Al1411     O1424   1.857       .  S
Al1411     O1421   1.914   1_545  S
Al1411     O1416   1.770       .  S
O1412      C1419   1.255       .  A
O1412     Al1420   1.884       .  S
O1413      C1422   1.256       .  A
O1413     Al1420   1.924       .  S
O1414     Al1420   1.944       .  S
O1415      C1422   1.249       .  A
O1416     Al1420   1.778       .  S
O1417      C1418   1.275       .  A
C1418      C1459   1.478       .  S
C1419      C1559   1.492       .  S
C1422      C1429   1.492       .  S
C1423      O1424   1.252       .  A
C1425      C1426   1.416       .  A
C1425      C1430   1.422       .  A
C1425     Br1432   1.925       .  S
C1426      C1427   1.416       .  A
C1427      C1428   1.407       .  A
C1427     Br1434   1.925       .  S
C1428      C1429   1.407       .  A
C1428     Br1433   1.932       .  S
C1429      C1430   1.417       .  A
C1430     Br1431   1.930       .  S
C1435      C1436   1.416   1_556  A
C1435      C1440   1.407       .  A
C1436      C1437   1.413   1_554  A
C1437      C1438   1.410       .  A
C1438      C1439   1.409       .  A
C1438     Br1443   1.926       .  S
C1439      C1440   1.404       .  A
C1440     Br1441   1.933       .  S
C1445      C1446   1.405       .  A
C1445      C1450   1.412       .  A
C1445     Br1452   1.933       .  S
C1446      C1447   1.406       .  A
C1447      C1448   1.412       .  A
C1447     Br1454   1.930       .  S
C1448      C1449   1.421       .  A
C1448     Br1453   1.930       .  S
C1449      C1450   1.424       .  A
C1450     Br1451   1.925       .  S
C1455      C1456   1.405       .  A
C1455      C1460   1.410       .  A
C1455     Br1462   1.928       .  S
C1456      C1457   1.413       .  A
C1457      C1458   1.403       .  A
C1458      C1459   1.404       .  A
C1458     Br1463   1.926   1_545  S
C1459      C1460   1.415       .  A
C1460     Br1461   1.927       .  S
C1465      C1466   1.410       .  A
C1465      C1470   1.405       .  A
C1465     Br1472   1.926   1_545  S
C1466      C1467   1.418       .  A
C1467      C1468   1.407       .  A
C1467     Br1474   1.924       .  S
C1468      C1469   1.402       .  A
C1468     Br1473   1.930       .  S
C1469      C1470   1.410       .  A
C1470     Br1471   1.928   1_545  S
C1475      C1476   1.424       .  A
C1475      C1480   1.413       .  A
C1475     Br1482   1.937       .  S
C1476      C1477   1.420       .  A
C1477      C1478   1.412       .  A
C1477     Br1484   1.938       .  S
C1478      C1479   1.418       .  A
C1478     Br1483   1.937       .  S
C1479      C1480   1.415       .  A
C1480     Br1481   1.936       .  S
C1485      C1486   1.412       .  A
C1485      C1490   1.416       .  A
C1485     Br1492   1.930       .  S
C1486      C1487   1.422       .  A
C1487      C1488   1.407       .  A
C1487     Br1494   1.932       .  S
C1488      C1489   1.405       .  A
C1488     Br1493   1.932       .  S
C1489      C1490   1.419       .  A
C1490     Br1491   1.930       .  S
C1495      C1496   1.419       .  A
C1495      C1500   1.416       .  A
C1495     Br1502   1.929       .  S
C1496      C1497   1.405       .  A
C1497      C1498   1.406       .  A
C1497     Br1504   1.932       .  S
C1498      C1499   1.425       .  A
C1499      C1500   1.411       .  A
C1500     Br1501   1.927       .  S
C1505      C1510   1.410   1_554  A
C1505     Br1512   1.931       .  S
C1507      C1508   1.405       .  A
C1507     Br1514   1.922       .  S
C1508     Br1513   1.932       .  S
C1510     Br1511   1.931       .  S
C1515      C1516   1.419       .  A
C1515      C1520   1.419       .  A
C1515     Br1522   1.931       .  S
C1516      C1517   1.421       .  A
C1517      C1518   1.407       .  A
C1517     Br1524   1.928       .  S
C1518      C1519   1.409       .  A
C1518     Br1523   1.937       .  S
C1519      C1520   1.416       .  A
C1520     Br1521   1.932       .  S
C1525      C1526   1.411       .  A
C1525      C1530   1.416       .  A
C1525     Br1532   1.926       .  S
C1526      C1527   1.406       .  A
C1527      C1528   1.406       .  A
C1527     Br1534   1.928   1_545  S
C1528      C1529   1.414       .  A
C1528     Br1533   1.930       .  S
C1529      C1530   1.415       .  A
C1530     Br1531   1.929       .  S
C1535      C1536   1.414       .  A
C1535      C1540   1.407       .  A
C1535     Br1542   1.931       .  S
C1536      C1537   1.414       .  A
C1537      C1538   1.412       .  A
C1537     Br1544   1.928       .  S
C1538      C1539   1.408       .  A
C1538     Br1543   1.926       .  S
C1539      C1540   1.408       .  A
C1540     Br1541   1.927       .  S
C1545      C1546   1.413   1_545  A
C1545     Br1552   1.939       .  S
C1546      C1547   1.425   1_556  A
C1547     Br1554   1.935       .  S
C1548      C1549   1.410   1_565  A
C1548     Br1553   1.940       .  S
C1549      C1550   1.424       .  A
C1550     Br1551   1.936       .  S
C1555      C1556   1.410   1_545  A
C1555      C1560   1.409       .  A
C1555     Br1562   1.938       .  S
C1557      C1558   1.408   1_455  A
C1557     Br1564   1.933       .  S
C1558      C1559   1.410   1_565  A
C1558     Br1563   1.937   1_655  S
C1560     Br1561   1.932       .  S
C1565      C1566   1.408       .  A
C1565      C1570   1.402       .  A
C1566      C1567   1.403       .  A
C1567      C1568   1.407       .  A
C1567     Br1574   1.930       .  S
C1568      C1569   1.415       .  A
C1568     Br1573   1.927       .  S
C1569      C1570   1.407       .  A
C1570     Br1571   1.924   1_565  S
C1575      C1576   1.417       .  A
C1575      C1580   1.412       .  A
C1575     Br1582   1.929       .  S
C1576      C1577   1.405       .  A
C1577      C1578   1.400       .  A
C1577     Br1584   1.927   1_565  S
C1578      C1579   1.409       .  A
C1578     Br1583   1.923       .  S
C1579      C1580   1.406       .  A
C1580     Br1581   1.930       .  S
C1585      C1586   1.406       .  A
C1585      C1590   1.410       .  A
C1585     Br1592   1.929   1_565  S
C1586      C1587   1.409       .  A
C1587      C1588   1.416       .  A
C1587     Br1594   1.926       .  S
C1588      C1589   1.416       .  A
C1588     Br1593   1.927       .  S
C1589      C1590   1.418       .  A
C1595      C1596   1.413       .  A
C1595      C1600   1.413       .  A
C1595     Br1602   1.928       .  S
C1596      C1597   1.412       .  A
C1597      C1598   1.408       .  A
C1597     Br1604   1.929       .  S
C1598      C1599   1.409       .  A
C1598     Br1603   1.928   1_545  S
C1599      C1600   1.411       .  A
C1600     Br1601   1.926       .  S
C1605      C1606   1.411       .  A
C1605      C1610   1.410       .  A
C1605     Br1612   1.931       .  S
C1606      C1607   1.411       .  A
C1607      C1608   1.409       .  A
C1607     Br1614   1.921       .  S
C1608      C1609   1.410       .  A
C1608     Br1613   1.933       .  S
C1609      C1610   1.411       .  A
C1610     Br1611   1.927       .  S
C1615      C1616   1.421       .  A
C1615      C1620   1.411       .  A
C1615     Br1622   1.924       .  S
C1616      C1617   1.420       .  A
C1617      C1618   1.408       .  A
C1618      C1619   1.404       .  A
C1618     Br1623   1.928       .  S
C1619      C1620   1.404       .  A
C1620     Br1621   1.933       .  S
C1625      C1626   1.418       .  A
C1625      C1630   1.408       .  A
C1625     Br1632   1.930       .  S
C1626      C1627   1.423       .  A
C1627      C1628   1.411       .  A
C1627     Br1634   1.926       .  S
C1628      C1629   1.405       .  A
C1628     Br1633   1.934       .  S
C1629      C1630   1.405       .  A
C1630     Br1631   1.927       .  S
C1635      C1636   1.419       .  A
C1635      C1640   1.409       .  A
C1635     Br1642   1.930       .  S
C1636      C1637   1.415       .  A
C1637      C1638   1.419       .  A
C1637     Br1644   1.927       .  S
C1638      C1639   1.416       .  A
C1638     Br1643   1.930       .  S
C1639      C1640   1.409       .  A
C1640     Br1641   1.933       .  S
C1645      C1646   1.413       .  A
C1645      C1650   1.412       .  A
C1645     Br1652   1.931       .  S
C1646      C1647   1.426       .  A
C1647      C1648   1.405       .  A
C1647     Br1654   1.931       .  S
C1648      C1649   1.400       .  A
C1648     Br1653   1.933       .  S
C1649      C1650   1.416       .  A
C1650     Br1651   1.932       .  S
C1655      C1656   1.411       .  A
C1655      C1660   1.412       .  A
C1655     Br1662   1.931       .  S
C1656      C1657   1.422       .  A
C1657      C1658   1.403       .  A
C1658      C1659   1.404       .  A
C1658     Br1663   1.933       .  S
C1659      C1660   1.416       .  A
C1660     Br1661   1.932       .  S
