geometry optimzed in LAMMPS
_audit_creation_date              2020-12-01 
_audit_creation_method            'lammps2cif' 
_symmetry_space_group_name_H-M    'P1' 
_symmetry_Int_Tables_number       1 
_symmetry_cell_setting            triclinic 
loop_ 
_symmetry_equiv_pos_as_xyz 
  x,y,z 
_cell_length_a                    31.18239871 
_cell_length_b                    34.52734825448724 
_cell_length_c                    29.161213276157127 
_cell_angle_alpha                 89.9908681982022 
_cell_angle_beta                  90.01828311664707 
_cell_angle_gamma                 89.95724183181055 
loop_ 
_atom_site_label 
_atom_site_type_symbol 
_atom_site_fract_x 
_atom_site_fract_y 
_atom_site_fract_z 
_atom_site_charge 
O1          O  0.00782839  0.15712844  0.94324895    -0.81000
C2          C  0.09720133  0.03571134  0.85957086     0.98400
O3          O  0.05853869  0.04343476  0.84982323    -0.70100
O4          O  0.02865436  0.04578750  0.93248636    -0.73700
Al5        Al  0.02209761  0.07932101  0.88353697     1.49000
C6          C  0.02487836  0.05519277  0.97385243     0.93600
O7          O  0.11178968  0.11213039  0.97903402    -0.79900
O8          O  0.10399159  0.16988325  0.86369248    -0.73500
Al9        Al  0.06038591  0.13315478  0.95701372     1.90100
O10         O  0.15124354  0.12086269  0.91792148    -0.72500
O11         O  0.07875323  0.11232652  0.80963128    -0.72400
O12         O  0.12237901  0.06240058  0.87097661    -0.78000
O13         O  0.01162394  0.11065016  0.83248185    -0.76200
O14         O  0.06422318  0.10994015  0.90299465    -1.12400
O15         O  0.47586428  0.10560131  0.91504456    -0.71600
C16         C  0.47426860  0.13684842  0.93751154     0.99200
C17         C  0.14794707  0.11489592  0.96062056     0.95600
Al18       Al  0.11043644  0.11581744  0.86800441     1.55600
O19         O  0.03232143  0.08958901  0.98721927    -0.76200
C20         C  0.03874298  0.11520983  0.80107269     0.99700
C21         C  0.10056091  0.19266492  0.89729922     0.94600
O22         O  0.08777322  0.18067920  0.93623226    -0.81500
O23         O  0.41685763  0.33650280  0.06098299    -0.81000
C24         C  0.40653537  0.48145642  0.13774683     0.98400
O25         O  0.38163242  0.45452459  0.12654493    -0.70100
O26         O  0.35330781  0.39631334  0.07933926    -0.73700
Al27       Al  0.39392817  0.40122093  0.12932621     1.49000
C28         C  0.35678620  0.40261382  0.03673600     0.93600
O29         O  0.47214832  0.42771378  0.01032509    -0.79900
O30         O  0.02843785  0.41070681  0.08230102    -0.73500
Al31       Al  0.44421799  0.38414755  0.04045306     1.90100
O32         O  0.47506859  0.47168908  0.06490974    -0.72500
O33         O  0.49270447  0.40707254  0.16491424    -0.72400
O34         O  0.44526946  0.47404331  0.14754477    -0.78000
O35         O  0.42553441  0.40460698  0.18761524    -0.76200
O36         O  0.44013756  0.40736910  0.09444205    -1.12400
O37         O  0.40061871  0.34717959  0.13349059    -0.71600
C38         C  0.40413231  0.32441854  0.09989125     0.99200
C39         C  0.47896575  0.46222298  0.02358552     0.95600
Al40       Al  0.48198918  0.43828999  0.11387069     1.55600
O41         O  0.39297322  0.40519175  0.01839224    -0.76200
C42         C  0.46554804  0.40191097  0.19615556     0.99700
C43         C  0.03044550  0.37930924  0.06020525     0.94600
O44         O  0.99726497  0.35954069  0.05339930    -0.81500
O45         O  0.16746533  0.43091789  0.93673853    -0.81000
C46         C  0.15842263  0.28556581  0.86079681     0.98400
O47         O  0.13327786  0.31233853  0.87209367    -0.70100
O48         O  0.10436124  0.37087114  0.91868648    -0.73700
Al49       Al  0.14511449  0.36572898  0.86884316     1.49000
C50         C  0.10763721  0.36486181  0.96137029     0.93600
O51         O  0.22332315  0.34011492  0.98814284    -0.79900
O52         O  0.27930755  0.35648399  0.91534234    -0.73500
Al53       Al  0.19506387  0.38350400  0.95773657     1.90100
O54         O  0.22692669  0.29620643  0.93352402    -0.72500
O55         O  0.24389908  0.36051071  0.83311045    -0.72400
O56         O  0.19710297  0.29323030  0.85103973    -0.78000
O57         O  0.17666100  0.36206296  0.81055265    -0.76200
O58         O  0.19131505  0.36006002  0.90381476    -1.12400
O59         O  0.15156524  0.41971643  0.86421579    -0.71600
C60         C  0.15489813  0.44270044  0.89761996     0.99200
C61         C  0.23062767  0.30567114  0.97485391     0.95600
Al62       Al  0.23349167  0.32942359  0.88447207     1.55600
O63         O  0.14378241  0.36240141  0.97990936    -0.76200
C64         C  0.21660033  0.36502822  0.80182373     0.99700
C65         C  0.28083057  0.38800330  0.93723823     0.94600
O66         O  0.24742488  0.40753826  0.94373014    -0.81500
O67         O  0.25769545  0.11036221  0.05366196    -0.81000
C68         C  0.34762200  0.23115886  0.13784407     0.98400
O69         O  0.30897503  0.22355188  0.14778513    -0.70100
O70         O  0.27948808  0.22147605  0.06512523    -0.73700
Al71       Al  0.27235954  0.18793020  0.11380563     1.49000
C72         C  0.27591908  0.21226616  0.02370428     0.93600
O73         O  0.36197189  0.15478130  0.01863775    -0.79900
O74         O  0.35361507  0.09679867  0.13370828    -0.73500
Al75       Al  0.31046720  0.13400596  0.04032107     1.90100
O76         O  0.40130284  0.14564955  0.07977155    -0.72500
O77         O  0.32858129  0.15448447  0.18778497    -0.72400
O78         O  0.37268069  0.20430243  0.12657154    -0.78000
O79         O  0.26148224  0.15654617  0.16474022    -0.76200
O80         O  0.31430201  0.15705341  0.09443291    -1.12400
O81         O  0.22629497  0.16150288  0.08238646    -0.71600
C82         C  0.22447156  0.13017480  0.06010345     0.99200
C83         C  0.39807228  0.15181604  0.03711249     0.95600
Al84       Al  0.36040896  0.15088020  0.12952917     1.55600
O85         O  0.28291142  0.17783674  0.01018847    -0.76200
C86         C  0.28853644  0.15173282  0.19620601     0.99700
C87         C  0.34996751  0.07407628  0.10005183     0.94600
O88         O  0.33742117  0.08624747  0.06109120    -0.81500
O89         O  0.49645165  0.15680604  0.55294674    -0.81000
C90         C  0.40599145  0.03583725  0.63618871     0.98400
O91         O  0.44474934  0.04314763  0.64596056    -0.68500
O92         O  0.47472701  0.04567502  0.56343761    -0.73700
Al93       Al  0.48157558  0.07892847  0.61253183     1.49000
C94         C  0.47858892  0.05513369  0.52210672     0.93600
O95         O  0.39225794  0.11253860  0.51707319    -0.79900
O96         O  0.40062282  0.17009851  0.63250087    -0.73500
Al97       Al  0.44376208  0.13324186  0.53911481     1.90100
O98         O  0.35291709  0.12151513  0.57823024    -0.72500
O99         O  0.42509965  0.11223402  0.68647525    -0.72400
O100        O  0.38110873  0.06283270  0.62496339    -0.78000
O101        O  0.49229443  0.10993339  0.66392885    -0.76200
O102        O  0.43975621  0.10994661  0.59312483    -1.12400
O103        O  0.02735626  0.10492528  0.58231258    -0.71600
C104        C  0.02920753  0.13637898  0.56028010     0.99200
C105        C  0.35614843  0.11529903  0.53559723     0.95600
Al106      Al  0.39359624  0.11612019  0.62808766     1.55600
O107        O  0.47152720  0.08961143  0.50881879    -0.76200
C108        C  0.46508518  0.11473094  0.69523683     0.99700
C109        C  0.40420731  0.19293638  0.59896182     0.94600
O110        O  0.41670381  0.18091703  0.55993952    -0.81500
O111        O  0.08617315  0.33531762  0.43689960    -0.81000
C112        C  0.09639637  0.48058453  0.36054469     0.98400
O113        O  0.12143272  0.45383476  0.37220977    -0.70100
O114        O  0.14988412  0.39533781  0.41911171    -0.73700
Al115      Al  0.10942592  0.40042938  0.36905431     1.49000
C116        C  0.14639876  0.40135888  0.46175387     0.93600
O117        O  0.03083968  0.42639447  0.48780045    -0.79900
O118        O  0.47554049  0.41125013  0.41433089    -0.73500
Al119      Al  0.05885884  0.38283962  0.45769554     1.90100
O120        O  0.02774045  0.47025364  0.43304094    -0.72500
O121        O  0.01084023  0.40574025  0.33283852    -0.72400
O122        O  0.05776894  0.47290687  0.35058431    -0.78000
O123        O  0.07815038  0.40404541  0.31054114    -0.76200
O124        O  0.06304785  0.40622059  0.40374494    -1.12400
O125        O  0.10286599  0.34647540  0.36456116    -0.71600
C126        C  0.09899587  0.32350496  0.39791662     0.99200
C127        C  0.02380297  0.46084121  0.47437454     0.95600
Al128      Al  0.02112546  0.43696362  0.38407489     1.55600
O129        O  0.11018445  0.40365119  0.48012746    -0.76200
C130        C  0.03822153  0.40117842  0.30165267     0.99700
C131        C  0.47343594  0.37974135  0.43619041     0.94600
O132        O  0.00625794  0.35908438  0.44359802    -0.81500
O133        O  0.33650710  0.43078487  0.55951558    -0.81000
C134        C  0.34758135  0.28607105  0.63667874     0.98400
O135        O  0.37243332  0.31295337  0.62508410    -0.70100
O136        O  0.40024598  0.37142819  0.57772489    -0.73700
Al137      Al  0.35999918  0.36629212  0.62794135     1.49000
C138        C  0.39671160  0.36499220  0.53516756     0.93600
O139        O  0.28102688  0.33938650  0.50954801    -0.79900
O140        O  0.22547349  0.35586847  0.58286171    -0.73500
Al141      Al  0.30915251  0.38306487  0.53929592     1.90100
O142        O  0.27806008  0.29563798  0.56439060    -0.72500
O143        O  0.26170024  0.36050897  0.66459462    -0.72400
O144        O  0.30890261  0.29350690  0.64668188    -0.78000
O145        O  0.32904607  0.36269233  0.68660706    -0.76200
O146        O  0.31356271  0.36000767  0.59339948    -1.12400
O147        O  0.35297065  0.42031757  0.63205780    -0.71600
C148        C  0.34924782  0.44299219  0.59836917     0.99200
C149        C  0.27394361  0.30497615  0.52303442     0.95600
Al150      Al  0.27184117  0.32920835  0.61337991     1.55600
O151        O  0.36046856  0.36208470  0.51694138    -0.76200
C152        C  0.28914568  0.36531007  0.69566020     0.99700
C153        C  0.22343207  0.38721925  0.56065330     0.94600
O154        O  0.25662453  0.40687578  0.55351013    -0.81500
O155        O  0.24593788  0.10990022  0.44344673    -0.81000
C156        C  0.15548852  0.23063693  0.35964125     0.98400
O157        O  0.19421938  0.22322324  0.34993815    -0.70100
O158        O  0.22396652  0.22117068  0.43270156    -0.73700
Al159      Al  0.23095597  0.18766643  0.38378205     1.49000
C160        C  0.22795341  0.21178486  0.47406022     0.93600
O161        O  0.14178948  0.15438690  0.47932960    -0.79900
O162        O  0.14993987  0.09648225  0.36418131    -0.73500
Al163      Al  0.19324607  0.13357645  0.45731775     1.90100
O164        O  0.10230456  0.14536589  0.41825282    -0.72500
O165        O  0.17465101  0.15399197  0.30991869    -0.72400
O166        O  0.13056410  0.20375463  0.37099400    -0.78000
O167        O  0.24177299  0.15639621  0.33277120    -0.76200
O168        O  0.18914970  0.15672895  0.40325284    -1.12400
O169        O  0.27711269  0.16118184  0.41481663    -0.71600
C170        C  0.27910969  0.12969435  0.43674327     0.99200
C171        C  0.10563549  0.15152293  0.46091499     0.95600
Al172      Al  0.14300193  0.15046392  0.36827847     1.55600
O173        O  0.22104595  0.17730015  0.48741696    -0.76200
C174        C  0.21468947  0.15145067  0.30138566     0.99700
C175        C  0.15347387  0.07375225  0.39782023     0.94600
O176        O  0.16610771  0.08585546  0.43675762    -0.81500
C177        C  0.24321355  0.24123954  0.50619402    -0.15600
C178        C  0.25847442  0.27554784  0.49099325    -0.30800
H179        H  0.24329499  0.23419202  0.54251317     0.13400
H180        H  0.25840347  0.28258396  0.45467140     0.14000
C181        C  0.43368643  0.36989164  0.46053910    -0.15600
C182        C  0.43527928  0.36294471  0.50608893    -0.30800
H183        H  0.40324704  0.37622874  0.44402067     0.13400
H184        H  0.46617719  0.36072269  0.52318507     0.14000
C185        C  0.18503158  0.40368679  0.49075120    -0.15600
C186        C  0.18360411  0.39704992  0.53637923    -0.30800
H187        H  0.21587228  0.40588668  0.47355871     0.13400
H188        H  0.15323056  0.39082186  0.55305355     0.14000
C189        C  0.11198725  0.02117672  0.36092053    -0.15600
C190        C  0.14140103  0.03268206  0.39211597    -0.30800
H191        H  0.09611276  0.04239629  0.33924526     0.13400
H192        H  0.15408631  0.01192204  0.41666198     0.14000
C193        C  0.11085765  0.28245541  0.39184470    -0.15600
C194        C  0.13984210  0.27095004  0.36023033    -0.30800
H195        H  0.09841487  0.26167720  0.41648040     0.13400
H196        H  0.15551613  0.29213225  0.33838276     0.14000
C197        C  0.36121126  0.48412246  0.60386610    -0.15600
C198        C  0.39048404  0.49584820  0.63509143    -0.30800
H199        H  0.34855876  0.50474315  0.57913763     0.13400
H200        H  0.40612147  0.97424597  0.65716911     0.14000
C201        C  0.36326649  0.24572086  0.63625295    -0.15600
C202        C  0.39235810  0.23405508  0.60481379    -0.30800
H203        H  0.34754836  0.22460925  0.65815986     0.13400
H204        H  0.40484782  0.25472990  0.58008617     0.14000
C205        C  0.49381725  0.02572161  0.48993735    -0.15600
C206        C  0.00849282  0.49029732  0.50634410    -0.30800
H207        H  0.49376158  0.03276307  0.45361746     0.13400
H208        H  0.00839470  0.48334288  0.54268762     0.14000
C209        C  0.31739835  0.11331578  0.50674799    -0.15600
C210        C  0.31884760  0.11976770  0.46109005    -0.30800
H211        H  0.28656213  0.11146041  0.52399891     0.13400
H212        H  0.34925917  0.12568373  0.44434082     0.14000
C213        C  0.06877376  0.14628738  0.53559354    -0.15600
C214        C  0.06701608  0.15324149  0.49001769    -0.30800
H215        H  0.09930459  0.14012357  0.55201181     0.13400
H216        H  0.03606972  0.15532141  0.47300282     0.14000
C217        C  0.23037821  0.14614498  0.25389212    -0.15600
C218        C  0.27282746  0.14631359  0.24366775    -0.30800
H219        H  0.20669253  0.14606435  0.22656630     0.13400
H220        H  0.29650491  0.14640242  0.27100222     0.14000
C221        C  0.23180405  0.37040474  0.75419118    -0.15600
C222        C  0.27409604  0.37055640  0.74338910    -0.30800
H223        H  0.20781263  0.37032650  0.72717097     0.13400
H224        H  0.29811375  0.37058752  0.77038335     0.14000
C225        C  0.24587637  0.27624376  0.00697770    -0.15600
C226        C  0.26104382  0.24190362  0.99168701    -0.30800
H227        H  0.24575509  0.28320656  0.04331510     0.13400
H228        H  0.26115794  0.23495470  0.95534625     0.14000
C229        C  0.02306610  0.39595712  0.25396561    -0.15600
C230        C  0.48109863  0.39611942  0.24355655    -0.30800
H231        H  0.04702960  0.39607461  0.22693766     0.13400
H232        H  0.45732303  0.39583609  0.27077267     0.14000
C233        C  0.07025156  0.36944071  0.03588069    -0.15600
C234        C  0.06887884  0.36280093  0.99024012    -0.30800
H235        H  0.10063728  0.37554035  0.05261356     0.13400
H236        H  0.03805523  0.36075061  0.97297151     0.14000
C237        C  0.32023210  0.39820648  0.96193665    -0.15600
C238        C  0.31829427  0.40473922  0.00756433    -0.30800
H239        H  0.35082440  0.39229723  0.94554045     0.13400
H240        H  0.28730202  0.40658899  0.02450430     0.14000
C241        C  0.36167428  0.03287148  0.10563822    -0.15600
C242        C  0.39125651  0.02092752  0.13643812    -0.30800
H243        H  0.34860401  0.01232867  0.08110417     0.13400
H244        H  0.40751051  0.04188962  0.15809496     0.14000
C245        C  0.39206751  0.28330912  0.10560142    -0.15600
C246        C  0.36304966  0.27161200  0.13712662    -0.30800
H247        H  0.40454492  0.26262527  0.08086675     0.13400
H248        H  0.34734263  0.29272169  0.15906305     0.14000
C249        C  0.02308945  0.12042364  0.75354827    -0.15600
C250        C  0.48045856  0.11992702  0.74290826    -0.30800
H251        H  0.04678311  0.12031539  0.72624948     0.13400
H252        H  0.45658573  0.11992174  0.77002672     0.14000
C253        C  0.00932499  0.02584427  0.00598996    -0.15600
C254        C  0.49389050  0.49163447  0.99133228    -0.30800
H255        H  0.00961064  0.03277413  0.04233535     0.13400
H256        H  0.49379094  0.48448081  0.95504470     0.14000
C257        C  0.11283502  0.23368896  0.89164221    -0.15600
C258        C  0.14293423  0.24513832  0.86118392    -0.30800
H259        H  0.09964744  0.25450366  0.91579512     0.13400
H260        H  0.15926208  0.22388817  0.83996345     0.14000
C261        C  0.11373450  0.49501795  0.85962085    -0.15600
C262        C  0.14268390  0.48369752  0.89142849    -0.30800
H263        H  0.09662540  0.97430386  0.83797027     0.13400
H264        H  0.15484035  0.50457799  0.91610309     0.14000
C265        C  0.18489094  0.12034229  0.03531103    -0.15600
C266        C  0.18660998  0.11328075  0.98974782    -0.30800
H267        H  0.15436373  0.12654437  0.05169125     0.13400
H268        H  0.21754929  0.11114129  0.97275082     0.14000
C269        C  0.43482376  0.14681917  0.96237926    -0.15600
C270        C  0.43669667  0.15341741  0.00802973    -0.30800
H271        H  0.40423185  0.14103380  0.94592150     0.13400
H272        H  0.46766893  0.15515963  0.02503716     0.14000
O273        O  0.00659269  0.65578492  0.94209176    -0.81000
C274        C  0.09781297  0.53528309  0.85875719     0.98400
O275        O  0.05904714  0.54250360  0.84891541    -0.70100
O276        O  0.02929690  0.54454844  0.93166759    -0.73700
Al277      Al  0.02203933  0.57794182  0.88267032     1.49000
C278        C  0.02515667  0.55406129  0.97296120     0.93600
O279        O  0.11085727  0.61162779  0.97801199    -0.79900
O280        O  0.10250318  0.66952341  0.86286598    -0.73500
Al281      Al  0.05940897  0.63233243  0.95602735     1.90100
O282        O  0.15041293  0.62089923  0.91706588    -0.72500
O283        O  0.07813011  0.61188635  0.80880203    -0.72400
O284        O  0.12255831  0.56233831  0.86997335    -0.78000
O285        O  0.01100765  0.60911190  0.83161004    -0.76200
O286        O  0.06363722  0.60913661  0.90204211    -1.12400
O287        O  0.47457813  0.60614823  0.91429908    -0.71600
C288        C  0.47278737  0.63755088  0.93639813     0.99200
C289        C  0.14701692  0.61454515  0.95967433     0.95600
Al290      Al  0.10976416  0.61557980  0.86709960     1.55600
O291        O  0.03182175  0.58860617  0.98618165    -0.76200
C292        C  0.03808360  0.61436289  0.80029969     0.99700
C293        C  0.09891256  0.69225767  0.89647647     0.94600
O294        O  0.08637366  0.68012477  0.93543134    -0.81500
O295        O  0.41617823  0.83552149  0.05929657    -0.81000
C296        C  0.40657896  0.98041792  0.13649460     0.98400
O297        O  0.38142643  0.95377960  0.12482263    -0.70100
O298        O  0.35264520  0.89534242  0.07775428    -0.73700
Al299      Al  0.39336916  0.90031745  0.12767746     1.49000
C300        C  0.35586845  0.90135425  0.03507244     0.93600
O301        O  0.47148194  0.92681614  0.00874887    -0.79900
O302        O  0.02719300  0.91072961  0.08175995    -0.73500
Al303      Al  0.44348608  0.88311210  0.03867359     1.90100
O304        O  0.47527959  0.97034150  0.06381390    -0.72500
O305        O  0.49206951  0.90513240  0.16351044    -0.72400
O306        O  0.44521689  0.97258266  0.14632583    -0.78000
O307        O  0.42488442  0.90367327  0.18613827    -0.76200
O308        O  0.43960483  0.90620740  0.09279500    -1.12400
O309        O  0.39991193  0.84633030  0.13183477    -0.71600
C310        C  0.40339627  0.82355738  0.09823877     0.99200
C311        C  0.47892599  0.96113881  0.02238124     0.95600
Al312      Al  0.48172334  0.93668911  0.11254854     1.55600
O313        O  0.39200488  0.90407276  0.01658386    -0.76200
C314        C  0.46484724  0.90062910  0.19483471     0.99700
C315        C  0.02872022  0.87947195  0.05931929     0.94600
O316        O  0.99531295  0.86003393  0.05259280    -0.81500
O317        O  0.16552030  0.92998300  0.93602797    -0.81000
C318        C  0.15524132  0.78547719  0.85864592     0.98400
O319        O  0.13018343  0.81226745  0.87012482    -0.70100
O320        O  0.10169224  0.87074454  0.91725329    -0.73700
Al321      Al  0.14243185  0.86561037  0.86734876     1.49000
C322        C  0.10498486  0.86432291  0.95984714     0.93600
O323        O  0.22029648  0.83833617  0.98626760    -0.79900
O324        O  0.27675625  0.85525233  0.91360346    -0.73500
Al325      Al  0.19258819  0.88219202  0.95649979     1.90100
O326        O  0.22411348  0.79494336  0.93107770    -0.72500
O327        O  0.24104307  0.86033263  0.83159446    -0.72400
O328        O  0.19388805  0.79308838  0.84866764    -0.78000
O329        O  0.17387804  0.86210714  0.80888554    -0.76200
O330        O  0.18867035  0.85935141  0.90225824    -1.12400
O331        O  0.14939239  0.91957156  0.86335337    -0.71600
C332        C  0.15308094  0.94221773  0.89705536     0.99200
C333        C  0.22755134  0.80401334  0.97256278     0.95600
Al334      Al  0.23064030  0.82872184  0.88246724     1.55600
O335        O  0.14112518  0.86122673  0.97821424    -0.76200
C336        C  0.21385038  0.86500835  0.80024897     0.99700
C337        C  0.27860261  0.88642363  0.93617752     0.94600
O338        O  0.24531349  0.90600456  0.94324114    -0.81500
O339        O  0.25613703  0.60912002  0.05335541    -0.81000
C340        C  0.34559746  0.73106302  0.13560899     0.98400
O341        O  0.30687918  0.72361209  0.14535954    -0.70100
O342        O  0.27727384  0.72048665  0.06276048    -0.73700
Al343      Al  0.27039764  0.68749919  0.11201347     1.49000
C344        C  0.27324798  0.71079181  0.02153378     0.93600
O345        O  0.35988013  0.65394049  0.01702751    -0.79900
O346        O  0.35203023  0.59693491  0.13293021    -0.73500
Al347      Al  0.30859229  0.63296175  0.03920524     1.90100
O348        O  0.39934491  0.64551562  0.07824626    -0.72500
O349        O  0.32694313  0.65482075  0.18622827    -0.72400
O350        O  0.37064310  0.70416389  0.12455739    -0.78000
O351        O  0.25975606  0.65667506  0.16345134    -0.76200
O352        O  0.31242853  0.65659206  0.09297881    -1.12400
O353        O  0.22448008  0.66051828  0.08117869    -0.71600
C354        C  0.22283259  0.62889199  0.05949928     0.99200
C355        C  0.39602897  0.65153084  0.03556454     0.95600
Al356      Al  0.35859186  0.65088433  0.12804191     1.55600
O357        O  0.28039354  0.67625509  0.00849403    -0.76200
C358        C  0.28695735  0.65203417  0.19480496     0.99700
C359        C  0.34874119  0.57390060  0.09957891     0.94600
O360        O  0.33611390  0.58559360  0.06044712    -0.81500
O361        O  0.49657018  0.65731658  0.55262310    -0.81000
C362        C  0.40607096  0.53622514  0.63550256     0.98400
O363        O  0.44471748  0.54372614  0.64560956    -0.68500
O364        O  0.47518017  0.54617157  0.56339510    -0.73700
Al365      Al  0.48163382  0.57955099  0.61233118     1.49000
C366        C  0.47909134  0.55545855  0.52203318     0.93600
O367        O  0.39256779  0.61280519  0.51626247    -0.79900
O368        O  0.40049324  0.67038553  0.63183233    -0.73500
Al369      Al  0.44398980  0.63361112  0.53857381     1.90100
O370        O  0.35302063  0.62192335  0.57722321    -0.72500
O371        O  0.42462982  0.61250648  0.68585681    -0.72400
O372        O  0.38113538  0.56309932  0.62394953    -0.78000
O373        O  0.49191559  0.61073971  0.66360030    -0.76200
O374        O  0.43981040  0.61037678  0.59257891    -1.12400
O375        O  0.02732079  0.60488387  0.58180091    -0.71600
C376        C  0.02925049  0.63630244  0.55969577     0.99200
C377        C  0.35638345  0.61563209  0.53461918     0.95600
Al378      Al  0.39347584  0.61644269  0.62727365     1.55600
O379        O  0.47199075  0.58989012  0.50851963    -0.76200
C380        C  0.46455308  0.61525645  0.69479792     0.99700
C381        C  0.40412340  0.69326537  0.59834247     0.94600
O382        O  0.41673735  0.68130343  0.55931349    -0.81500
O383        O  0.08613356  0.83571032  0.43627888    -0.81000
C384        C  0.09636020  0.98082513  0.36028378     0.98400
O385        O  0.12134430  0.95389900  0.37149555    -0.70100
O386        O  0.14965429  0.89518634  0.41808635    -0.73700
Al387      Al  0.10902438  0.90058122  0.36822843     1.49000
C388        C  0.14632836  0.90146825  0.46068965     0.93600
O389        O  0.03087586  0.92676377  0.48741329    -0.79900
O390        O  0.47521660  0.91102000  0.41380382    -0.73500
Al391      Al  0.05884135  0.88326687  0.45711034     1.90100
O392        O  0.02757858  0.97072007  0.43282501    -0.72500
O393        O  0.01039951  0.90643752  0.33238586    -0.72400
O394        O  0.05765740  0.97338898  0.35039097    -0.78000
O395        O  0.07760367  0.90445100  0.30984774    -0.76200
O396        O  0.06281244  0.90659516  0.40314514    -1.12400
O397        O  0.10210383  0.84663137  0.36370596    -0.71600
C398        C  0.09863204  0.82376733  0.39722523     0.99200
C399        C  0.02374872  0.96123143  0.47414480     0.95600
Al400      Al  0.02091769  0.93748219  0.38372126     1.55600
O401        O  0.11019167  0.90419384  0.47914749    -0.76200
C402        C  0.03764359  0.90171119  0.30111446     0.99700
C403        C  0.47334554  0.87970081  0.43610483     0.94600
O404        O  0.00626976  0.85951495  0.44319317    -0.81500
O405        O  0.33592961  0.93107975  0.55977421    -0.81000
C406        C  0.34690554  0.78606023  0.63624443     0.98400
O407        O  0.37173011  0.81306503  0.62504995    -0.70100
O408        O  0.39979756  0.87166480  0.57808108    -0.73700
Al409      Al  0.35909612  0.86634535  0.62800977     1.49000
C410        C  0.39653231  0.86548072  0.53541629     0.93600
O411        O  0.28108057  0.83969768  0.50874362    -0.79900
O412        O  0.22506646  0.85551651  0.58143098    -0.73500
Al413      Al  0.30886799  0.88337817  0.53902987     1.90100
O414        O  0.27833995  0.79568481  0.56329932    -0.72500
O415        O  0.26032362  0.86006440  0.66350782    -0.72400
O416        O  0.30813736  0.79335316  0.64597226    -0.78000
O417        O  0.32744292  0.86261096  0.68632732    -0.76200
O418        O  0.31299093  0.86007666  0.59300239    -1.12400
O419        O  0.35197277  0.92030125  0.63234528    -0.71600
C420        C  0.34847171  0.94310662  0.59877831     0.99200
C421        C  0.27422582  0.80517026  0.52199800     0.95600
Al422      Al  0.27126663  0.82899054  0.61234192     1.55600
O423        O  0.36039207  0.86268255  0.51693146    -0.76200
C424        C  0.28740654  0.86511491  0.69486467     0.99700
C425        C  0.22304565  0.88708048  0.55965915     0.94600
O426        O  0.25618058  0.90694495  0.55306886    -0.81500
O427        O  0.24609862  0.60999873  0.44258571    -0.81000
C428        C  0.15539541  0.73086132  0.35923511     0.98400
O429        O  0.19406357  0.72338252  0.34925728    -0.70100
O430        O  0.22454197  0.72120372  0.43163709    -0.73700
Al431      Al  0.23095740  0.68766125  0.38271746     1.49000
C432        C  0.22844877  0.71189068  0.47301554     0.93600
O433        O  0.14202232  0.65453448  0.47881632    -0.79900
O434        O  0.14957604  0.59663410  0.36359249    -0.73500
Al435      Al  0.19343801  0.63372526  0.45656407     1.90100
O436        O  0.10233786  0.64554265  0.41790190    -0.72500
O437        O  0.17395884  0.65428474  0.30927394    -0.72400
O438        O  0.13047682  0.70400488  0.37071745    -0.78000
O439        O  0.24123128  0.65636160  0.33162326    -0.76200
O440        O  0.18914823  0.65685067  0.40250413    -1.12400
O441        O  0.27726152  0.66105009  0.41341097    -0.71600
C442        C  0.27928917  0.62969943  0.43560753     0.99200
C443        C  0.10580631  0.65169010  0.46053002     0.95600
Al444      Al  0.14276381  0.65067808  0.36780464     1.55600
O445        O  0.22135340  0.67746725  0.48648999    -0.76200
C446        C  0.21390396  0.65162780  0.30043296     0.99700
C447        C  0.15335908  0.57390340  0.39722073     0.94600
O448        O  0.16623451  0.58602239  0.43606716    -0.81500
C449        C  0.24373454  0.74138798  0.50506822    -0.15600
C450        C  0.25890351  0.77574402  0.48986051    -0.30800
H451        H  0.24380796  0.73435119  0.54139002     0.13400
H452        H  0.25879504  0.78280823  0.45354686     0.14000
C453        C  0.43368360  0.86993640  0.46074565    -0.15600
C454        C  0.43525424  0.86356159  0.50644937    -0.30800
H455        H  0.40320307  0.87581122  0.44407853     0.13400
H456        H  0.46614413  0.86172825  0.52362130     0.14000
C457        C  0.18497739  0.90353031  0.48961923    -0.15600
C458        C  0.18337793  0.89700004  0.53524693    -0.30800
H459        H  0.21585859  0.90546165  0.47246212     0.13400
H460        H  0.15293099  0.89098334  0.55187868     0.14000
C461        C  0.11186381  0.52101720  0.36074987    -0.15600
C462        C  0.14137914  0.53278017  0.39170010    -0.30800
H463        H  0.09582441  0.54206983  0.33898627     0.13400
H464        H  0.15424808  0.51215935  0.41629994     0.14000
C465        C  0.11061946  0.78271837  0.39128889    -0.15600
C466        C  0.13977229  0.77120720  0.35984222    -0.30800
H467        H  0.09812442  0.76195635  0.41591186     0.13400
H468        H  0.15549864  0.79239611  0.33804680     0.14000
C469        C  0.36055976  0.98415550  0.60461759    -0.15600
C470        C  0.39018190  0.99554073  0.63565066    -0.30800
H471        H  0.34780380  0.00498252  0.58019562     0.13400
H472        H  0.40630658  0.47476694  0.65699622     0.14000
C473        C  0.36275250  0.74576338  0.63562326    -0.15600
C474        C  0.39209844  0.73433610  0.60431026    -0.30800
H475        H  0.34697668  0.72449552  0.65726941     0.13400
H476        H  0.40467119  0.75515490  0.57980167     0.14000
C477        C  0.49438275  0.52584292  0.49014405    -0.15600
C478        C  0.00849499  0.99059707  0.50632379    -0.30800
H479        H  0.49466274  0.53278663  0.45380107     0.13400
H480        H  0.00858915  0.98353673  0.54263852     0.14000
C481        C  0.31767270  0.61357402  0.50567650    -0.15600
C482        C  0.31909253  0.61988060  0.45997904    -0.30800
H483        H  0.28682773  0.61175713  0.52292282     0.13400
H484        H  0.34950041  0.62575804  0.44319987     0.14000
C485        C  0.06891643  0.64619900  0.53517056    -0.15600
C486        C  0.06722987  0.65344713  0.48966877    -0.30800
H487        H  0.09940413  0.63979408  0.55155101     0.13400
H488        H  0.03630220  0.65575579  0.47265370     0.14000
C489        C  0.22919407  0.64642423  0.25282413    -0.15600
C490        C  0.27154886  0.64666616  0.24232317    -0.30800
H491        H  0.20531905  0.64635140  0.22568536     0.13400
H492        H  0.29540393  0.64677811  0.26948183     0.14000
C493        C  0.22934808  0.87037861  0.75269896    -0.15600
C494        C  0.27176642  0.87055519  0.74234799    -0.30800
H495        H  0.20558989  0.87017282  0.72544507     0.13400
H496        H  0.29551347  0.87075137  0.76961141     0.14000
C497        C  0.24252863  0.77437753  0.00452895    -0.15600
C498        C  0.25774493  0.74004373  0.98929805    -0.30800
H499        H  0.24248629  0.78137295  0.04085880     0.13400
H500        H  0.25771841  0.73297633  0.95298953     0.14000
C501        C  0.02230053  0.89634225  0.25351542    -0.15600
C502        C  0.48027636  0.89536498  0.24244615    -0.30800
H503        H  0.04616317  0.89644632  0.22638573     0.13400
H504        H  0.45644211  0.89553376  0.26960338     0.14000
C505        C  0.06819659  0.86936928  0.03456312    -0.15600
C506        C  0.06637297  0.86260771  0.98895075    -0.30800
H507        H  0.09877268  0.87528263  0.05099011     0.13400
H508        H  0.03541008  0.86076957  0.97193668     0.14000
C509        C  0.31841180  0.89630347  0.96055799    -0.15600
C510        C  0.31706280  0.90314205  0.00616997    -0.30800
H511        H  0.34881425  0.89021524  0.94385657     0.13400
H512        H  0.28624185  0.90518246  0.02343095     0.14000
C513        C  0.36107654  0.53295103  0.10581270    -0.15600
C514        C  0.39074705  0.52178078  0.13693834    -0.30800
H515        H  0.34837521  0.51196106  0.08158880     0.13400
H516        H  0.40665019  0.54319023  0.15827832     0.14000
C517        C  0.39105059  0.78260388  0.10400274    -0.15600
C518        C  0.36124007  0.77137540  0.13487869    -0.30800
H519        H  0.40390729  0.76170180  0.07974943     0.13400
H520        H  0.34521847  0.79273097  0.15621766     0.14000
C521        C  0.02242757  0.62000424  0.75287930    -0.15600
C522        C  0.47972929  0.62034011  0.74251166    -0.30800
H523        H  0.04614833  0.62019922  0.72560772     0.13400
H524        H  0.45577617  0.62021675  0.76955074     0.14000
C525        C  0.00997394  0.52472423  0.00520591    -0.15600
C526        C  0.49430675  0.99067331  0.99047280    -0.30800
H527        H  0.01010111  0.53186204  0.04149754     0.13400
H528        H  0.49397279  0.98391021  0.95408319     0.14000
C529        C  0.11079252  0.73337002  0.89073494    -0.15600
C530        C  0.13980047  0.74506866  0.85921931    -0.30800
H531        H  0.09830388  0.75402468  0.91549934     0.13400
H532        H  0.15552698  0.72398443  0.83726269     0.14000
C533        C  0.11249734  0.99526837  0.85994859    -0.15600
C534        C  0.14146822  0.98338445  0.89140550    -0.30800
H535        H  0.09832326  0.47370914  0.83773467     0.13400
H536        H  0.15410408  0.00392803  0.91620067     0.14000
C537        C  0.18349727  0.61885704  0.03456838    -0.15600
C538        C  0.18553033  0.61265867  0.98886982    -0.30800
H539        H  0.15285510  0.62451815  0.05097923     0.13400
H540        H  0.21655646  0.61107470  0.97196428     0.14000
C541        C  0.43315508  0.64750896  0.96092123    -0.15600
C542        C  0.43472506  0.65365317  0.00664708    -0.30800
H543        H  0.40268192  0.64179045  0.94418129     0.13400
H544        H  0.46560791  0.65535648  0.02385073     0.14000
O545        O  0.50760845  0.15639459  0.94417886    -0.81000
C546        C  0.59706803  0.03545412  0.85973706     0.98400
O547        O  0.55835322  0.04305204  0.84998408    -0.70100
O548        O  0.52856379  0.04524010  0.93251399    -0.73700
Al549      Al  0.52177348  0.07884979  0.88376564     1.49000
C550        C  0.52507060  0.05438899  0.97396443     0.93600
O551        O  0.61168497  0.11131071  0.97909496    -0.79900
O552        O  0.60298546  0.16963147  0.86406962    -0.73500
Al553      Al  0.56020200  0.13243342  0.95748759     1.90100
O554        O  0.65082881  0.12077456  0.91793388    -0.72500
O555        O  0.57823199  0.11200618  0.80986618    -0.72400
O556        O  0.62214950  0.06224774  0.87105843    -0.78000
O557        O  0.51108783  0.11021508  0.83261896    -0.76200
O558        O  0.56383652  0.10948664  0.90327017    -1.12400
O559        O  0.97617156  0.10615346  0.91449736    -0.71600
C560        C  0.97448333  0.13757620  0.93656047     0.99200
C561        C  0.64774134  0.11436346  0.96054954     0.95600
Al562      Al  0.60990831  0.11561158  0.86818344     1.55600
O563        O  0.53238707  0.08872983  0.98755515    -0.76200
C564        C  0.53824203  0.11477325  0.80121138     0.99700
C565        C  0.59964607  0.19229794  0.89780717     0.94600
O566        O  0.58736778  0.18010568  0.93684335    -0.81500
O567        O  0.91745362  0.33553091  0.06046466    -0.81000
C568        C  0.90673797  0.48071379  0.13660730     0.98400
O569        O  0.88181413  0.45379571  0.12536690    -0.70100
O570        O  0.85348868  0.39527175  0.07857829    -0.73700
Al571      Al  0.89413762  0.40047675  0.12844959     1.49000
C572        C  0.85677164  0.40130993  0.03591987     0.93600
O573        O  0.97216545  0.42669994  0.00928561    -0.79900
O574        O  0.52811896  0.41165647  0.08289188    -0.73500
Al575      Al  0.94446886  0.38313363  0.03957979     1.90100
O576        O  0.97555999  0.47067976  0.06384606    -0.72500
O577        O  0.99280320  0.40634316  0.16439108    -0.72400
O578        O  0.94546698  0.47328833  0.14641392    -0.78000
O579        O  0.92556303  0.40415564  0.18681018    -0.76200
O580        O  0.94038926  0.40649075  0.09355034    -1.12400
O581        O  0.90094710  0.34650719  0.13288250    -0.71600
C582        C  0.90468414  0.32362793  0.09942331     0.99200
C583        C  0.97931489  0.46116001  0.02251014     0.95600
Al584      Al  0.98224332  0.43740884  0.11301617     1.55600
O585        O  0.89291538  0.40381118  0.01741816    -0.76200
C586        C  0.96551876  0.40147107  0.19559580     0.99700
C587        C  0.52999960  0.38014357  0.06098929     0.94600
O588        O  0.49678642  0.36035279  0.05449335    -0.81500
O589        O  0.66653832  0.43092071  0.93673263    -0.81000
C590        C  0.65623284  0.28555572  0.86061066     0.98400
O591        O  0.63122302  0.31235622  0.87213024    -0.70100
O592        O  0.60277484  0.37090364  0.91897553    -0.73700
Al593      Al  0.64329327  0.36575544  0.86895228     1.49000
C594        C  0.60630498  0.36505947  0.96166348     0.93600
O595        O  0.72178627  0.33970512  0.98792818    -0.79900
O596        O  0.77767531  0.35557039  0.91513547    -0.73500
Al597      Al  0.69385019  0.38333473  0.95764274     1.90100
O598        O  0.72462971  0.29574238  0.93330252    -0.72500
O599        O  0.74202624  0.36010771  0.83316679    -0.72400
O600        O  0.69487060  0.29315685  0.85071495    -0.78000
O601        O  0.67479429  0.36209990  0.81053309    -0.76200
O602        O  0.68962892  0.35990455  0.90375724    -1.12400
O603        O  0.64973660  0.41977981  0.86442144    -0.71600
C604        C  0.65345467  0.44273302  0.89781743     0.99200
C605        C  0.72868671  0.30519659  0.97460450     0.95600
Al606      Al  0.73149102  0.32898517  0.88430980     1.55600
O607        O  0.64252803  0.36264455  0.98000582    -0.76200
C608        C  0.71479350  0.36478653  0.80186140     0.99700
C609        C  0.77969021  0.38708850  0.93697407     0.94600
O610        O  0.74651657  0.40696204  0.94353551    -0.81500
O611        O  0.75804321  0.10981023  0.05256204    -0.81000
C612        C  0.84753745  0.23078521  0.13676160     0.98400
O613        O  0.80884668  0.22321089  0.14663205    -0.70100
O614        O  0.77848279  0.22103693  0.06437292    -0.73700
Al615      Al  0.77215952  0.18734864  0.11304846     1.49000
C616        C  0.77477252  0.21190614  0.02294720     0.93600
O617        O  0.86173385  0.15538735  0.01732091    -0.79900
O618        O  0.85348611  0.09682393  0.13231003    -0.73500
Al619      Al  0.81046046  0.13399261  0.03905527     1.90100
O620        O  0.90113200  0.14553671  0.07826423    -0.72500
O621        O  0.82909027  0.15437802  0.18669854    -0.72400
O622        O  0.87260813  0.20400239  0.12530682    -0.78000
O623        O  0.76191528  0.15585540  0.16406842    -0.76200
O624        O  0.81423079  0.15686336  0.09328981    -1.12400
O625        O  0.72620558  0.16046720  0.08203123    -0.71600
C626        C  0.72461850  0.12921003  0.05957814     0.99200
C627        C  0.89786905  0.15218494  0.03571126     0.95600
Al628      Al  0.86044466  0.15072667  0.12820028     1.55600
O629        O  0.78219586  0.17760860  0.00925119    -0.76200
C630        C  0.78914429  0.15148074  0.19543479     0.99700
C631        C  0.85032853  0.07420753  0.09852935     0.94600
O632        O  0.83805775  0.08639296  0.05946617    -0.81500
O633        O  0.99598773  0.15620408  0.55383790    -0.81000
C634        C  0.90586951  0.03526740  0.63758020     0.98400
O635        O  0.94458889  0.04275067  0.64733596    -0.68500
O636        O  0.97423606  0.04496893  0.56462836    -0.73700
Al637      Al  0.98125178  0.07841630  0.61348801     1.49000
C638        C  0.97806663  0.05436535  0.52327198     0.93600
O639        O  0.89192899  0.11173582  0.51807768    -0.79900
O640        O  0.90006031  0.16941368  0.63330920    -0.73500
Al641      Al  0.94333190  0.13253037  0.54005342     1.90100
O642        O  0.85244505  0.12065781  0.57914241    -0.72500
O643        O  0.92492671  0.11189778  0.68738337    -0.72400
O644        O  0.88089165  0.06214390  0.62619650    -0.78000
O645        O  0.99204203  0.10972602  0.66447702    -0.76200
O646        O  0.93934954  0.10931501  0.59407093    -1.12400
O647        O  0.52773777  0.10555410  0.58164485    -0.71600
C648        C  0.52962928  0.13694743  0.55949534     0.99200
C649        C  0.85578201  0.11454476  0.53647888     0.95600
Al650      Al  0.89321202  0.11546602  0.62906510     1.55600
O651        O  0.97110289  0.08884320  0.50990299    -0.76200
C652        C  0.96495907  0.11467467  0.69585450     0.99700
C653        C  0.90361239  0.19221219  0.59975078     0.94600
O654        O  0.91619393  0.18019692  0.56076201    -0.81500
O655        O  0.58636340  0.33568122  0.43666502    -0.81000
C656        C  0.59745818  0.48077618  0.36017155     0.98400
O657        O  0.62235457  0.45396051  0.37198954    -0.70100
O658        O  0.65036173  0.39525765  0.41904116    -0.73700
Al659      Al  0.61005470  0.40060575  0.36882396     1.49000
C660        C  0.64675375  0.40127439  0.46168405     0.93600
O661        O  0.53124454  0.42726650  0.48725353    -0.79900
O662        O  0.97493628  0.41026883  0.41486951    -0.73500
Al663      Al  0.55916489  0.38341846  0.45730000     1.90100
O664        O  0.52863235  0.47108762  0.43241805    -0.72500
O665        O  0.51158192  0.40624490  0.33264894    -0.72400
O666        O  0.55885589  0.47321888  0.35000622    -0.78000
O667        O  0.57885276  0.40433131  0.31023460    -0.76200
O668        O  0.56365231  0.40670921  0.40339682    -1.12400
O669        O  0.60319623  0.34667385  0.36433498    -0.71600
C670        C  0.59930759  0.32376712  0.39774742     0.99200
C671        C  0.52447971  0.46177186  0.47375514     0.95600
Al672      Al  0.52193862  0.43762388  0.38358813     1.55600
O673        O  0.61049319  0.40400657  0.47986335    -0.76200
C674        C  0.53888995  0.40150309  0.30145806     0.99700
C675        C  0.97302122  0.37884959  0.43694968     0.94600
O676        O  0.50656717  0.35986318  0.44290144    -0.81500
O677        O  0.83593973  0.43014044  0.56098663    -0.81000
C678        C  0.84660454  0.28511609  0.63739594     0.98400
O679        O  0.87153461  0.31197678  0.62596642    -0.70100
O680        O  0.89974702  0.37048135  0.57891182    -0.73700
Al681      Al  0.85928348  0.36530345  0.62903630     1.49000
C682        C  0.89629059  0.36436505  0.53626213     0.93600
O683        O  0.78067319  0.33895920  0.51029699    -0.79900
O684        O  0.72481951  0.35514368  0.58330943    -0.73500
Al685      Al  0.80868443  0.38254377  0.54036192     1.90100
O686        O  0.77749501  0.29503631  0.56495668    -0.72500
O687        O  0.76075773  0.35962524  0.66512534    -0.72400
O688        O  0.80792595  0.29259764  0.64734924    -0.78000
O689        O  0.82800850  0.36162544  0.68756120    -0.76200
O690        O  0.81293388  0.35924459  0.59430983    -1.12400
O691        O  0.85248213  0.41933599  0.63343505    -0.71600
C692        C  0.84868908  0.44216528  0.59990865     0.99200
C693        C  0.77357148  0.30450380  0.52362785     0.95600
Al694      Al  0.77106999  0.32842916  0.61397321     1.55600
O695        O  0.86006235  0.36170880  0.51794694    -0.76200
C696        C  0.78804640  0.36437300  0.69633777     0.99700
C697        C  0.72292842  0.38658429  0.56127740     0.94600
O698        O  0.75615196  0.40629775  0.55460979    -0.81500
O699        O  0.74639896  0.10960803  0.44307814    -0.81000
C700        C  0.65649307  0.23094973  0.35980312     0.98400
O701        O  0.69521937  0.22348517  0.35005570    -0.70100
O702        O  0.72460447  0.22085749  0.43281559    -0.73700
Al703      Al  0.73180352  0.18764448  0.38375382     1.49000
C704        C  0.72824055  0.21134568  0.47415492     0.93600
O705        O  0.64219712  0.15399325  0.47859786    -0.79900
O706        O  0.65059037  0.09669155  0.36307654    -0.73500
Al707      Al  0.69367701  0.13323925  0.45673511     1.90100
O708        O  0.60288162  0.14537067  0.41734831    -0.72500
O709        O  0.67568202  0.15448527  0.30947732    -0.72400
O710        O  0.63149336  0.20402967  0.37083270    -0.78000
O711        O  0.74279337  0.15664546  0.33247130    -0.76200
O712        O  0.68986840  0.15665332  0.40281428    -1.12400
O713        O  0.77780897  0.16095765  0.41493464    -0.71600
C714        C  0.77960890  0.12944413  0.43685220     0.99200
C715        C  0.60610078  0.15136154  0.46004545     0.95600
Al716      Al  0.64380693  0.15069715  0.36763231     1.55600
O717        O  0.72129241  0.17681444  0.48730763    -0.76200
C718        C  0.71572453  0.15182390  0.30102162     0.99700
C719        C  0.65406935  0.07376436  0.39654038     0.94600
O720        O  0.66663784  0.08564465  0.43560629    -0.81500
C721        C  0.74314774  0.24075545  0.50648199    -0.15600
C722        C  0.75833734  0.27513987  0.49143984    -0.30800
H723        H  0.74302853  0.23363311  0.54278048     0.13400
H724        H  0.75845244  0.28225625  0.45513900     0.14000
C725        C  0.93333338  0.36899489  0.46151619    -0.15600
C726        C  0.93492593  0.36237589  0.50716590    -0.30800
H727        H  0.90285427  0.37505620  0.44493946     0.13400
H728        H  0.96583518  0.36036359  0.52427012     0.14000
C729        C  0.68522489  0.40308708  0.49095710    -0.15600
C730        C  0.68336150  0.39647195  0.53657938    -0.30800
H731        H  0.71621418  0.40500502  0.47402518     0.13400
H732        H  0.65280933  0.39048557  0.55300251     0.14000
C733        C  0.61244640  0.02125168  0.35948487    -0.15600
C734        C  0.64203387  0.03270469  0.39053841    -0.30800
H735        H  0.59643985  0.04251253  0.33797824     0.13400
H736        H  0.65484557  0.01187301  0.41492349     0.14000
C737        C  0.61136377  0.28270815  0.39178465    -0.15600
C738        C  0.64087246  0.27131613  0.36062040    -0.30800
H739        H  0.59856675  0.26184356  0.41610299     0.13400
H740        H  0.65683711  0.29261109  0.33917166     0.14000
C741        C  0.86054043  0.48328994  0.60561925    -0.15600
C742        C  0.88988501  0.49501818  0.63675817    -0.30800
H743        H  0.84783130  0.50392676  0.58094116     0.13400
H744        H  0.90625109  0.97365024  0.65858055     0.14000
C745        C  0.86225140  0.24477129  0.63683277    -0.15600
C746        C  0.89160687  0.23326898  0.60558899    -0.30800
H747        H  0.84641320  0.22357069  0.65851983     0.13400
H748        H  0.90425213  0.25402875  0.58105285     0.14000
C749        C  0.99320216  0.02491816  0.49114919    -0.15600
C750        C  0.50923150  0.49141661  0.50561942    -0.30800
H751        H  0.99312181  0.03197476  0.45483350     0.13400
H752        H  0.50892282  0.48446278  0.54195912     0.14000
C753        C  0.81720013  0.11281791  0.50732335    -0.15600
C754        C  0.81907611  0.11948266  0.46169535    -0.30800
H755        H  0.78621869  0.11094584  0.52427600     0.13400
H756        H  0.84965224  0.12541924  0.44529550     0.14000
C757        C  0.56918277  0.14668876  0.53472800    -0.15600
C758        C  0.56743672  0.15320368  0.48905575    -0.30800
H759        H  0.59970577  0.14073391  0.55126554     0.13400
H760        H  0.53650446  0.15512274  0.47198413     0.14000
C761        C  0.73133821  0.14638166  0.25352118    -0.15600
C762        C  0.77373103  0.14645451  0.24308064    -0.30800
H763        H  0.70755419  0.14614815  0.22629387     0.13400
H764        H  0.79753348  0.14674861  0.27028795     0.14000
C765        C  0.73026641  0.36996437  0.75431610    -0.15600
C766        C  0.77266229  0.36976911  0.74388924    -0.30800
H767        H  0.70644793  0.37000471  0.72712176     0.13400
H768        H  0.79649029  0.36968936  0.77107482     0.14000
C769        C  0.74404095  0.27571084  0.00659760    -0.15600
C770        C  0.75935113  0.24147860  0.99112721    -0.30800
H771        H  0.74409269  0.28261640  0.04294996     0.13400
H772        H  0.75935519  0.23461891  0.95476126     0.14000
C773        C  0.52350200  0.39619853  0.25391664    -0.15600
C774        C  0.98075770  0.39599079  0.24321637    -0.30800
H775        H  0.54729012  0.39647968  0.22671384     0.13400
H776        H  0.95680018  0.39590781  0.27025180     0.14000
C777        C  0.56957972  0.37019493  0.03638150    -0.15600
C778        C  0.56778804  0.36315063  0.99084662    -0.30800
H779        H  0.60009132  0.37651586  0.05273373     0.13400
H780        H  0.53683127  0.36088238  0.97389241     0.14000
C781        C  0.81944103  0.39693861  0.96137041    -0.15600
C782        C  0.81801669  0.40341244  0.00703173    -0.30800
H783        H  0.84985018  0.39091420  0.94465053     0.13400
H784        H  0.78717694  0.40538933  0.02426712     0.14000
C785        C  0.86235588  0.03316974  0.10425536    -0.15600
C786        C  0.89102043  0.02150215  0.13615018    -0.30800
H787        H  0.85013709  0.01252018  0.07934270     0.13400
H788        H  0.90654196  0.04256228  0.15828560     0.14000
C789        C  0.89269078  0.28259491  0.10530672    -0.15600
C790        C  0.86307425  0.27114494  0.13628024    -0.30800
H791        H  0.90557951  0.26179381  0.08094988     0.13400
H792        H  0.84701462  0.29237251  0.15776415     0.14000
C793        C  0.52281074  0.11994656  0.75355489    -0.15600
C794        C  0.98064008  0.12030658  0.74328896    -0.30800
H795        H  0.54667513  0.11991583  0.72642750     0.13400
H796        H  0.95694933  0.12038121  0.77059121     0.14000
C797        C  0.50993901  0.02478094  0.00591849    -0.15600
C798        C  0.99453920  0.49044183  0.99019822    -0.30800
H799        H  0.51028182  0.03154378  0.04230852     0.13400
H800        H  0.99436040  0.48331999  0.95390159     0.14000
C801        C  0.61149276  0.23342008  0.89216190    -0.15600
C802        C  0.64075500  0.24515208  0.86095820    -0.30800
H803        H  0.59880708  0.25404595  0.91684476     0.13400
H804        H  0.65666014  0.22408117  0.83912931     0.14000
C805        C  0.61134367  0.49511361  0.86099095    -0.15600
C806        C  0.64116173  0.48375930  0.89187531    -0.30800
H807        H  0.59673234  0.97396819  0.83835027     0.13400
H808        H  0.65414217  0.50466728  0.91602773     0.14000
C809        C  0.68499215  0.11909096  0.03509584    -0.15600
C810        C  0.68652423  0.11259533  0.98942123    -0.30800
H811        H  0.65450633  0.12481840  0.05180345     0.13400
H812        H  0.71738461  0.11093157  0.97218483     0.14000
C813        C  0.93489920  0.14768826  0.96107600    -0.15600
C814        C  0.93654711  0.15404711  0.00675409    -0.30800
H815        H  0.90438547  0.14198232  0.94441402     0.13400
H816        H  0.96745408  0.15564415  0.02392154     0.14000
O817        O  0.50606478  0.65719570  0.94311243    -0.81000
C818        C  0.59581858  0.53554625  0.86013253     0.98400
O819        O  0.55715478  0.54315075  0.85016767    -0.70100
O820        O  0.52718623  0.54601281  0.93263115    -0.73700
Al821      Al  0.52056586  0.57924412  0.88352117     1.49000
C822        C  0.52373512  0.55547791  0.97399812     0.93600
O823        O  0.61019819  0.61250448  0.97889864    -0.79900
O824        O  0.60218947  0.66976108  0.86332773    -0.73500
Al825      Al  0.55873989  0.63339950  0.95683576     1.90100
O826        O  0.64957700  0.62099415  0.91771129    -0.72500
O827        O  0.57729267  0.61202902  0.80959844    -0.72400
O828        O  0.62088484  0.56239539  0.87125859    -0.78000
O829        O  0.51007797  0.61032169  0.83214726    -0.76200
O830        O  0.56259152  0.61000111  0.90289104    -1.12400
O831        O  0.97568381  0.60425778  0.91372913    -0.71600
C832        C  0.97352917  0.63577033  0.93562088     0.99200
C833        C  0.64632550  0.61493365  0.96036780     0.95600
Al834      Al  0.60881471  0.61576894  0.86792569     1.55600
O835        O  0.53093852  0.58992794  0.98723514    -0.76200
C836        C  0.53733766  0.61491128  0.80086391     0.99700
C837        C  0.59860851  0.69271157  0.89674939     0.94600
O838        O  0.58593303  0.68089505  0.93579091    -0.81500
O839        O  0.91543583  0.83652164  0.05965380    -0.81000
C840        C  0.90626691  0.98107152  0.13696211     0.98400
O841        O  0.88104903  0.95438946  0.12563240    -0.70100
O842        O  0.85209962  0.89609664  0.07849248    -0.73700
Al843      Al  0.89294748  0.90100228  0.12836525     1.49000
C844        C  0.85538214  0.90233003  0.03585506     0.93600
O845        O  0.97083720  0.92786442  0.00926195    -0.79900
O846        O  0.52768436  0.90995786  0.08152938    -0.73500
Al847      Al  0.94282831  0.88416653  0.03918351     1.90100
O848        O  0.97482547  0.97135282  0.06430069    -0.72500
O849        O  0.99174564  0.90599970  0.16399511    -0.72400
O850        O  0.94489333  0.97332766  0.14688218    -0.78000
O851        O  0.92456538  0.90434368  0.18669767    -0.76200
O852        O  0.93914308  0.90705520  0.09339182    -1.12400
O853        O  0.89948772  0.84689848  0.13235293    -0.71600
C854        C  0.90290319  0.82427506  0.09857671     0.99200
C855        C  0.97830287  0.96219102  0.02283808     0.95600
Al856      Al  0.98133312  0.93754128  0.11301452     1.55600
O857        O  0.89150620  0.90542424  0.01749200    -0.76200
C858        C  0.96453996  0.90143745  0.19534521     0.99700
C859        C  0.52937576  0.87866538  0.05921946     0.94600
O860        O  0.49604479  0.85914769  0.05238027    -0.81500
O861        O  0.66620081  0.93003846  0.93610437    -0.81000
C862        C  0.65581592  0.78542800  0.85895770     0.98400
O863        O  0.63087868  0.81233745  0.87032295    -0.70100
O864        O  0.60259828  0.87084436  0.91737092    -0.73700
Al865      Al  0.64330821  0.86562000  0.86751912     1.49000
C866        C  0.60587217  0.86436097  0.95995570     0.93600
O867        O  0.72122649  0.83851211  0.98660111    -0.79900
O868        O  0.77744161  0.85488977  0.91427490    -0.73500
Al869      Al  0.69338238  0.88228590  0.95661277     1.90100
O870        O  0.72432577  0.79482955  0.93170354    -0.72500
O871        O  0.74202837  0.85978673  0.83206105    -0.72400
O872        O  0.69453573  0.79284744  0.84913864    -0.78000
O873        O  0.67487016  0.86198199  0.80925637    -0.76200
O874        O  0.68943272  0.85927976  0.90250155    -1.12400
O875        O  0.65036712  0.91958673  0.86340126    -0.71600
C876        C  0.65378861  0.94224577  0.89711389     0.99200
C877        C  0.72818933  0.80407922  0.97308413     0.95600
Al878      Al  0.73130290  0.82840820  0.88299764     1.55600
O879        O  0.64199005  0.86132814  0.97841000    -0.76200
C880        C  0.71486851  0.86463230  0.80070900     0.99700
C881        C  0.77920773  0.88628942  0.93644010     0.94600
O882        O  0.74595331  0.90604325  0.94290482    -0.81500
O883        O  0.75655138  0.60907523  0.05275856    -0.81000
C884        C  0.84653976  0.73071085  0.13562419     0.98400
O885        O  0.80792337  0.72302213  0.14557247    -0.70100
O886        O  0.77795781  0.72028338  0.06305470    -0.73700
Al887      Al  0.77132477  0.68705161  0.11211241     1.49000
C888        C  0.77403301  0.71081532  0.02173842     0.93600
O889        O  0.86052701  0.65355282  0.01631957    -0.79900
O890        O  0.85308328  0.59647163  0.13204584    -0.73500
Al891      Al  0.80916319  0.63280044  0.03870501     1.90100
O892        O  0.90016219  0.64521566  0.07740863    -0.72500
O893        O  0.82817593  0.65422910  0.18590786    -0.72400
O894        O  0.87161362  0.70394517  0.12408715    -0.78000
O895        O  0.76092226  0.65593904  0.16339965    -0.76200
O896        O  0.81327252  0.65624625  0.09261121    -1.12400
O897        O  0.72522577  0.66030369  0.08136966    -0.71600
C898        C  0.72331944  0.62883991  0.05941237     0.99200
C899        C  0.89673161  0.65103234  0.03470340     0.95600
Al900      Al  0.85960243  0.65048781  0.12741624     1.55600
O901        O  0.78114290  0.67634704  0.00841550    -0.76200
C902        C  0.78820904  0.65141425  0.19469127     0.99700
C903        C  0.84941456  0.57349000  0.09866364     0.94600
O904        O  0.83651826  0.58527956  0.05967043    -0.81500
O905        O  0.99603866  0.65608999  0.55301606    -0.81000
C906        C  0.90554943  0.53537497  0.63687156     0.98400
O907        O  0.94426037  0.54286496  0.64667054    -0.68500
O908        O  0.97420153  0.54489627  0.56414678    -0.73700
Al909      Al  0.98107888  0.57844085  0.61286664     1.49000
C910        C  0.97821432  0.55416322  0.52278065     0.93600
O911        O  0.89216798  0.61140701  0.51695610    -0.79900
O912        O  0.90002947  0.66950863  0.63200502    -0.73500
Al913      Al  0.94346491  0.63234224  0.53905127     1.90100
O914        O  0.85252853  0.62070397  0.57783886    -0.72500
O915        O  0.92447415  0.61200779  0.68640413    -0.72400
O916        O  0.88063910  0.56221840  0.62518050    -0.78000
O917        O  0.99166285  0.60986064  0.66376927    -0.76200
O918        O  0.93928663  0.60928562  0.59315010    -1.12400
O919        O  0.52788387  0.60623515  0.58167880    -0.71600
C920        C  0.52979898  0.63760953  0.55950613     0.99200
C921        C  0.85598180  0.61435307  0.53524297     0.95600
Al922      Al  0.89304814  0.61555671  0.62792587     1.55600
O923        O  0.97139474  0.58860524  0.50922187    -0.76200
C924        C  0.96447083  0.61470018  0.69505973     0.99700
C925        C  0.90356282  0.69220346  0.59833888     0.94600
O926        O  0.91617754  0.68006525  0.55941120    -0.81500
O927        O  0.58657625  0.83602703  0.43615431    -0.81000
C928        C  0.59679267  0.98087604  0.35897430     0.98400
O929        O  0.62176197  0.95400623  0.37038480    -0.70100
O930        O  0.65018183  0.89571678  0.41775732    -0.73700
Al931      Al  0.60955171  0.90066342  0.36768610     1.49000
C932        C  0.64675062  0.90193737  0.46038830     0.93600
O933        O  0.53128011  0.92745106  0.48653976    -0.79900
O934        O  0.97484468  0.91068949  0.41445163    -0.73500
Al935      Al  0.55922042  0.88374268  0.45661940     1.90100
O936        O  0.52799157  0.97117351  0.43166598    -0.72500
O937        O  0.51084016  0.90627600  0.33173390    -0.72400
O938        O  0.55808800  0.97337278  0.34914571    -0.78000
O939        O  0.57805739  0.90399939  0.30922578    -0.76200
O940        O  0.56327287  0.90682748  0.40249616    -1.12400
O941        O  0.60288509  0.84667357  0.36363067    -0.71600
C942        C  0.59937983  0.82394476  0.39726071     0.99200
C943        C  0.52419990  0.96187559  0.47305739     0.95600
Al944      Al  0.52135328  0.93762604  0.38281098     1.55600
O945        O  0.61055419  0.90470034  0.47869221    -0.76200
C946        C  0.53807553  0.90122362  0.30052502     0.99700
C947        C  0.97301782  0.87923932  0.43647463     0.94600
O948        O  0.50658615  0.85995648  0.44285403    -0.81500
O949        O  0.83612035  0.93066567  0.56069950    -0.81000
C950        C  0.84652617  0.78516629  0.63589997     0.98400
O951        O  0.87153187  0.81201960  0.62464654    -0.70100
O952        O  0.89993716  0.87080119  0.57833282    -0.73700
Al953      Al  0.85937164  0.86536316  0.62819881     1.49000
C954        C  0.89651273  0.86486249  0.53567103     0.93600
O955        O  0.78112502  0.83970801  0.50898351    -0.79900
O956        O  0.72498446  0.85556976  0.58187121    -0.73500
Al957      Al  0.80895963  0.88318435  0.53950781     1.90100
O958        O  0.77788846  0.79564422  0.56347111    -0.72500
O959        O  0.76074996  0.85972270  0.66396516    -0.72400
O960        O  0.80787561  0.79271853  0.64590983    -0.78000
O961        O  0.82799373  0.86138878  0.68654844    -0.76200
O962        O  0.81306232  0.85962669  0.59331336    -1.12400
O963        O  0.85266932  0.91934311  0.63305811    -0.71600
C964        C  0.84888604  0.94239863  0.59975197     0.99200
C965        C  0.77412455  0.80519234  0.52216209     0.95600
Al966      Al  0.77116881  0.82874774  0.61261651     1.55600
O967        O  0.86033358  0.86244258  0.51724701    -0.76200
C968        C  0.78803913  0.86426983  0.69524793     0.99700
C969        C  0.72310248  0.88706317  0.55992740     0.94600
O970        O  0.75631347  0.90685756  0.55352836    -0.81500
O971        O  0.74644198  0.60986326  0.44265123    -0.81000
C972        C  0.65643776  0.73098015  0.35935817     0.98400
O973        O  0.69509153  0.72342718  0.34932373    -0.70100
O974        O  0.72530035  0.72113676  0.43169696    -0.73700
Al975      Al  0.73187528  0.68761564  0.38287145     1.49000
C976        C  0.72911881  0.71183555  0.47307170     0.93600
O977        O  0.64269754  0.65492007  0.47875661    -0.79900
O978        O  0.65049205  0.59672679  0.36364663    -0.73500
Al979      Al  0.69400099  0.63381635  0.45665429     1.90100
O980        O  0.60312449  0.64574969  0.41778718    -0.72500
O981        O  0.67511155  0.65427390  0.30926794    -0.72400
O982        O  0.63145279  0.70412542  0.37066395    -0.78000
O983        O  0.74233475  0.65630191  0.33177670    -0.76200
O984        O  0.68995127  0.65689269  0.40255410    -1.12400
O985        O  0.77799201  0.66086368  0.41378570    -0.71600
C986        C  0.77974343  0.62944311  0.43589746     0.99200
C987        C  0.60651572  0.65210950  0.46038984     0.95600
Al988      Al  0.64369044  0.65077107  0.36775412     1.55600
O989        O  0.72207868  0.67742071  0.48655871    -0.76200
C990        C  0.71508757  0.65153977  0.30051671     0.99700
C991        C  0.65402511  0.57404714  0.39735656     0.94600
O992        O  0.66660960  0.58621706  0.43627472    -0.81500
C993        C  0.74418714  0.74134651  0.50511276    -0.15600
C994        C  0.75909565  0.77578712  0.48992884    -0.30800
H995        H  0.74425777  0.73426518  0.54142326     0.13400
H996        H  0.75902033  0.78289123  0.45362505     0.14000
C997        C  0.93341426  0.86932957  0.46100283    -0.15600
C998        C  0.93510907  0.86281391  0.50664468    -0.30800
H999        H  0.90291996  0.87533018  0.44442498     0.13400
H1000       H  0.96602809  0.86084467  0.52374046     0.14000
C1001       C  0.68531291  0.90383771  0.48958891    -0.15600
C1002       C  0.68353167  0.89700128  0.53519209    -0.30800
H1003       H  0.71627327  0.90591283  0.47262844     0.13400
H1004       H  0.65299981  0.89084955  0.55157231     0.14000
C1005       C  0.61300371  0.52115244  0.36046089    -0.15600
C1006       C  0.64208376  0.53293617  0.39183747    -0.30800
H1007       H  0.59728504  0.54217501  0.33839088     0.13400
H1008       H  0.65458271  0.51236070  0.41670976     0.14000
C1009       C  0.61164246  0.78289534  0.39156474    -0.15600
C1010       C  0.64085682  0.77137246  0.36013947    -0.30800
H1011       H  0.59915887  0.76213942  0.41619965     0.13400
H1012       H  0.65654420  0.79256585  0.33831969     0.14000
C1013       C  0.86078348  0.98345510  0.60589965    -0.15600
C1014       C  0.89025198  0.99490435  0.63705894    -0.30800
H1015       H  0.84797740  0.00430266  0.58152931     0.13400
H1016       H  0.90579107  0.47394667  0.65860735     0.14000
C1017       C  0.86206928  0.74478463  0.63518488    -0.15600
C1018       C  0.89148837  0.73326892  0.60401014    -0.30800
H1019       H  0.84617564  0.72358011  0.65682101     0.13400
H1020       H  0.90420597  0.75401747  0.57950381     0.14000
C1021       C  0.99338901  0.52459518  0.49089959    -0.15600
C1022       C  0.50905637  0.99138262  0.50513074    -0.30800
H1023       H  0.99349307  0.53154123  0.45455347     0.13400
H1024       H  0.50912263  0.98435950  0.54145573     0.14000
C1025       C  0.81746087  0.61252816  0.50607517    -0.15600
C1026       C  0.81928998  0.61936832  0.46049819    -0.30800
H1027       H  0.78649816  0.61056355  0.52305421     0.13400
H1028       H  0.84983342  0.62542718  0.44409045     0.14000
C1029       C  0.56949168  0.64748074  0.53504410    -0.15600
C1030       C  0.56788824  0.65414644  0.48941500    -0.30800
H1031       H  0.59995668  0.64138872  0.55163672     0.13400
H1032       H  0.53699177  0.65615802  0.47228302     0.14000
C1033       C  0.73048395  0.64616686  0.25291774    -0.15600
C1034       C  0.77285733  0.64625199  0.24233917    -0.30800
H1035       H  0.70661138  0.64604296  0.22577895     0.13400
H1036       H  0.79673107  0.64642812  0.26947686     0.14000
C1037       C  0.73035128  0.86996274  0.75322058    -0.15600
C1038       C  0.77271339  0.86958903  0.74280199    -0.30800
H1039       H  0.70653169  0.87023059  0.72602722     0.13400
H1040       H  0.79654378  0.86927949  0.76998447     0.14000
C1041       C  0.74337251  0.77450874  0.00503371    -0.15600
C1042       C  0.75866584  0.74024029  0.98967671    -0.30800
H1043       H  0.74334107  0.78144140  0.04137971     0.13400
H1044       H  0.75869627  0.73329115  0.95333536     0.14000
C1045       C  0.52265966  0.89546357  0.25298957    -0.15600
C1046       C  0.97994660  0.89616283  0.24294340    -0.30800
H1047       H  0.54649701  0.89532678  0.22583441     0.13400
H1048       H  0.95608903  0.89611584  0.27007880     0.14000
C1049       C  0.56893200  0.86869429  0.03460687    -0.15600
C1050       C  0.56722197  0.86244793  0.98891082    -0.30800
H1051       H  0.59945599  0.87438691  0.05125502     0.13400
H1052       H  0.53630332  0.86083055  0.97176974     0.14000
C1053       C  0.81870695  0.89627704  0.96121019    -0.15600
C1054       C  0.81681276  0.90375685  0.00666552    -0.30800
H1055       H  0.84927953  0.88991719  0.94500834     0.13400
H1056       H  0.78583268  0.90600397  0.02355752     0.14000
C1057       C  0.86159241  0.53246257  0.10468457    -0.15600
C1058       C  0.89101276  0.52105771  0.13595058    -0.30800
H1059       H  0.84897423  0.51161373  0.08023982     0.13400
H1060       H  0.90682572  0.54232240  0.15756812     0.14000
C1061       C  0.89098563  0.78311187  0.10402632    -0.15600
C1062       C  0.86191959  0.77117873  0.13534743    -0.30800
H1063       H  0.90356410  0.76259091  0.07916002     0.13400
H1064       H  0.84612313  0.79212821  0.15742606     0.14000
C1065       C  0.52205018  0.62029697  0.75324061    -0.15600
C1066       C  0.98000202  0.61999076  0.74258352    -0.30800
H1067       H  0.54599032  0.62036069  0.72618772     0.13400
H1068       H  0.95627097  0.61982015  0.76984519     0.14000
C1069       C  0.50888935  0.52608215  0.00633081    -0.15600
C1070       C  0.99357722  0.99170465  0.99077735    -0.30800
H1071       H  0.50903337  0.53321940  0.04262245     0.13400
H1072       H  0.99325685  0.98480510  0.95442416     0.14000
C1073       C  0.61066087  0.73372944  0.89072093    -0.15600
C1074       C  0.64014152  0.74510231  0.85955848    -0.30800
H1075       H  0.59794413  0.75458568  0.91511444     0.13400
H1076       H  0.65606105  0.72381547  0.83803815     0.14000
C1077       C  0.61258370  0.99505262  0.86018323    -0.15600
C1078       C  0.64183771  0.98335567  0.89146702    -0.30800
H1079       H  0.59521925  0.47378905  0.83972195     0.13400
H1080       H  0.65446143  0.00399707  0.91615427     0.14000
C1081       C  0.68361797  0.61896301  0.03495609    -0.15600
C1082       C  0.68507913  0.61274944  0.98924191    -0.30800
H1083       H  0.65318642  0.62480779  0.05171901     0.13400
H1084       H  0.71592699  0.61093039  0.97199884     0.14000
C1085       C  0.93378266  0.64554564  0.96011059    -0.15600
C1086       C  0.93535736  0.65283084  0.00560990    -0.30800
H1087       H  0.90335270  0.63902709  0.94369444     0.13400
H1088       H  0.96625066  0.65527836  0.02265923     0.14000
loop_ 
_geom_bond_atom_site_label_1 
_geom_bond_atom_site_label_2 
_geom_bond_distance 
_geom_bond_site_symmetry_2 
_ccdc_geom_bond_type 
O1           Al9   1.879       .  S
O1          C560   1.255   1_455  A
C2           O12   1.256       .  A
C2            O3   1.267       .  A
C2          C533   1.475   1_545  S
O3           Al5   1.947       .  S
O4           Al5   1.849       .  S
O4            C6   1.255       .  A
Al5          O13   1.869       .  S
Al5         O559   1.930   1_455  S
Al5          O14   1.780       .  S
C6           O19   1.272       .  A
C6          C253   1.463   1_556  S
O7           Al9   1.872       .  S
O7           C17   1.253       .  A
O8          Al18   1.882       .  S
O8           C21   1.261       .  A
Al9          O22   1.947       .  S
Al9          O19   1.951       .  S
Al9          O14   1.772       .  S
O10         Al18   1.941       .  S
O10          C17   1.266       .  A
O11         Al18   1.972       .  S
O11          C20   1.276       .  A
O12         Al18   1.883       .  S
O13          C20   1.257       .  A
O14         Al18   1.778       .  S
O15        Al549   1.932       .  S
O15          C16   1.263       .  A
C16         O545   1.255       .  A
C16         C269   1.469       .  S
C17         C266   1.476       .  S
C20         C249   1.480       .  S
C21          O22   1.273       .  A
C21         C257   1.477       .  S
O23         Al31   1.948       .  S
O23          C38   1.273       .  A
C24          O34   1.267       .  A
C24          O25   1.255       .  A
C24         C514   1.477       .  S
O25         Al27   1.881       .  S
O26         Al27   1.938       .  S
O26          C28   1.266       .  A
Al27         O35   1.968       .  S
Al27         O37   1.881       .  S
Al27         O36   1.777       .  S
C28          O41   1.252       .  A
C28         C238   1.473       .  S
O29         Al31   1.948       .  S
O29          C39   1.271       .  A
O30        Al584   1.930   1_455  S
O30          C43   1.263       .  A
Al31         O41   1.869       .  S
Al31        O588   1.878       .  S
Al31         O36   1.771       .  S
O32         Al40   1.848       .  S
O32          C39   1.255       .  A
O33         Al40   1.868       .  S
O33          C42   1.257       .  A
O34         Al40   1.949       .  S
O35          C42   1.276       .  A
O36         Al40   1.779       .  S
O37          C38   1.261       .  A
C38         C245   1.478       .  S
C39         C254   1.461   1_554  S
Al40        O574   1.931       .  S
C42         C230   1.478       .  S
C43          O44   1.256   1_455  A
C43         C233   1.470       .  S
O44        Al575   1.880       .  S
O45         Al53   1.948       .  S
O45          C60   1.273       .  A
C46          O56   1.267       .  A
C46          O47   1.256       .  A
C46         C258   1.477       .  S
O47         Al49   1.883       .  S
O48         Al49   1.939       .  S
O48          C50   1.266       .  A
Al49         O57   1.968       .  S
Al49         O59   1.880       .  S
Al49         O58   1.775       .  S
C50          O63   1.253       .  A
C50         C234   1.475       .  S
O51         Al53   1.950       .  S
O51          C61   1.271       .  A
O52         Al62   1.930       .  S
O52          C65   1.263       .  A
Al53         O66   1.877       .  S
Al53         O63   1.873       .  S
Al53         O58   1.773       .  S
O54         Al62   1.845       .  S
O54          C61   1.254       .  A
O55         Al62   1.871       .  S
O55          C64   1.257       .  A
O56         Al62   1.950       .  S
O57          C64   1.275       .  A
O58         Al62   1.779       .  S
O59          C60   1.261       .  A
C60         C262   1.477       .  S
C61         C225   1.461   1_556  S
C64         C221   1.480       .  S
C65          O66   1.255       .  A
C65         C237   1.467       .  S
O67         Al75   1.878       .  S
O67          C82   1.255       .  A
C68          O78   1.256       .  A
C68          O69   1.267       .  A
C68         C246   1.478       .  S
O69         Al71   1.949       .  S
O70         Al71   1.846       .  S
O70          C72   1.254       .  A
Al71         O79   1.870       .  S
Al71         O81   1.933       .  S
Al71         O80   1.779       .  S
C72          O85   1.271       .  A
C72         C226   1.460   1_554  S
O73         Al75   1.870       .  S
O73          C83   1.252       .  A
O74         Al84   1.883       .  S
O74          C87   1.262       .  A
Al75         O88   1.947       .  S
Al75         O85   1.949       .  S
Al75         O80   1.771       .  S
O76         Al84   1.940       .  S
O76          C83   1.266       .  A
O77         Al84   1.972       .  S
O77          C86   1.276       .  A
O78         Al84   1.886       .  S
O79          C86   1.257       .  A
O80         Al84   1.777       .  S
O81          C82   1.263       .  A
C82         C265   1.470       .  S
C83         C270   1.474       .  S
C86         C218   1.480       .  S
C87          O88   1.273       .  A
C87         C241   1.477       .  S
O89         Al97   1.878       .  S
O89         C648   1.255       .  A
C90         O100   1.256       .  A
C90          O91   1.267       .  A
C90         C470   1.477   1_545  S
O91         Al93   1.949       .  S
O92         Al93   1.848       .  S
O92          C94   1.255       .  A
Al93        O101   1.872       .  S
Al93        O647   1.932       .  S
Al93        O102   1.779       .  S
C94         O107   1.271       .  A
C94         C205   1.462       .  S
O95         Al97   1.872       .  S
O95         C105   1.253       .  A
O96        Al106   1.881       .  S
O96         C109   1.261       .  A
Al97        O110   1.947       .  S
Al97        O107   1.949       .  S
Al97        O102   1.773       .  S
O98        Al106   1.938       .  S
O98         C105   1.266       .  A
O99        Al106   1.970       .  S
O99         C108   1.276       .  A
O100       Al106   1.883       .  S
O101        C108   1.257       .  A
O102       Al106   1.777       .  S
O103       Al637   1.932   1_455  S
O103        C104   1.263       .  A
C104        O633   1.255   1_455  A
C104        C213   1.469       .  S
C105        C209   1.474       .  S
C108        C250   1.481       .  S
C109        O110   1.272       .  A
C109        C202   1.477       .  S
O111       Al119   1.945       .  S
O111        C126   1.272       .  A
C112        O122   1.267       .  A
C112        O113   1.256       .  A
C112        C461   1.477       .  S
O113       Al115   1.884       .  S
O114       Al115   1.937       .  S
O114        C116   1.265       .  A
Al115       O123   1.969       .  S
Al115       O125   1.879       .  S
Al115       O124   1.776       .  S
C116        O129   1.253       .  A
C116        C185   1.474       .  S
O117       Al119   1.948       .  S
O117        C127   1.271       .  A
O118       Al672   1.931       .  S
O118        C131   1.263       .  A
Al119       O132   1.880       .  S
Al119       O129   1.873       .  S
Al119       O124   1.773       .  S
O120       Al128   1.845       .  S
O120        C127   1.254       .  A
O121       Al128   1.870       .  S
O121        C130   1.257       .  A
O122       Al128   1.950       .  S
O123        C130   1.276       .  A
O124       Al128   1.778       .  S
O125        C126   1.261       .  A
C126        C193   1.475       .  S
C127        C206   1.460       .  S
Al128       O662   1.932   1_455  S
C130        C229   1.480       .  S
C131        O676   1.255       .  A
C131        C181   1.469       .  S
O132        C675   1.255   1_455  A
O133       Al141   1.947       .  S
O133        C148   1.273       .  A
C134        O144   1.267       .  A
C134        O135   1.256       .  A
C134        C201   1.476       .  S
O135       Al137   1.884       .  S
O136       Al137   1.937       .  S
O136        C138   1.266       .  A
Al137       O145   1.968       .  S
Al137       O147   1.882       .  S
Al137       O146   1.777       .  S
C138        O151   1.253       .  A
C138        C182   1.473       .  S
O139       Al141   1.949       .  S
O139        C149   1.271       .  A
O140       Al150   1.930       .  S
O140        C153   1.263       .  A
Al141       O154   1.879       .  S
Al141       O151   1.873       .  S
Al141       O146   1.772       .  S
O142       Al150   1.850       .  S
O142        C149   1.255       .  A
O143       Al150   1.870       .  S
O143        C152   1.257       .  A
O144       Al150   1.948       .  S
O145        C152   1.275       .  A
O146       Al150   1.779       .  S
O147        C148   1.261       .  A
C148        C197   1.477       .  S
C149        C178   1.462       .  S
C152        C222   1.480       .  S
C153        O154   1.256       .  A
C153        C186   1.469       .  S
O155       Al163   1.879       .  S
O155        C170   1.256       .  A
C156        O166   1.256       .  A
C156        O157   1.266       .  A
C156        C194   1.475       .  S
O157       Al159   1.947       .  S
O158       Al159   1.850       .  S
O158        C160   1.255       .  A
Al159       O167   1.869       .  S
Al159       O169   1.930       .  S
Al159       O168   1.779       .  S
C160        O173   1.271       .  A
C160        C177   1.463       .  S
O161       Al163   1.871       .  S
O161        C171   1.253       .  A
O162       Al172   1.880       .  S
O162        C175   1.261       .  A
Al163       O176   1.947       .  S
Al163       O173   1.950       .  S
Al163       O168   1.772       .  S
O164       Al172   1.941       .  S
O164        C171   1.266       .  A
O165       Al172   1.971       .  S
O165        C174   1.276       .  A
O166       Al172   1.882       .  S
O167        C174   1.257       .  A
O168       Al172   1.777       .  S
O169        C170   1.263       .  A
C170        C210   1.468       .  S
C171        C214   1.475       .  S
C174        C217   1.480       .  S
C175        O176   1.272       .  A
C175        C190   1.477       .  S
C177        C178   1.352       .  D
C177        H179   1.087       .  S
C178        H180   1.087       .  S
C181        C182   1.351       .  D
C181        H183   1.086       .  S
C182        H184   1.087       .  S
C185        C186   1.351       .  D
C185        H187   1.087       .  S
C186        H188   1.086       .  S
C189        C384   1.476   1_545  S
C189        C190   1.352       .  D
C189        H191   1.086       .  S
C190        H192   1.087       .  S
C193        C194   1.351       .  D
C193        H195   1.087       .  S
C194        H196   1.086       .  S
C197        C198   1.351       .  D
C197        H199   1.087       .  S
C198        C362   1.477       .  S
C198        H472   1.086       .  S
H200        C470   1.087       .  S
C201        C202   1.351       .  D
C201        H203   1.086       .  S
C202        H204   1.087       .  S
C205       C1022   1.352   1_545  D
C205        H207   1.087       .  S
C206       C1021   1.351   1_455  D
C206        H208   1.087       .  S
C209        C210   1.351       .  D
C209        H211   1.087       .  S
C210        H212   1.086       .  S
C213        C214   1.352       .  D
C213        H215   1.086       .  S
C214        H216   1.087       .  S
C217        C218   1.357       .  D
C217        H219   1.086       .  S
C218        H220   1.086       .  S
C221        C222   1.356       .  D
C221        H223   1.086       .  S
C222        H224   1.086       .  S
C225        C226   1.352   1_554  D
C225        H227   1.087       .  S
C226        H228   1.087       .  S
C229        C774   1.356   1_455  D
C229        H231   1.086       .  S
C230        C773   1.356       .  D
C230        H232   1.086       .  S
C233        C234   1.351   1_554  D
C233        H235   1.086       .  S
C234        H236   1.087       .  S
C237        C238   1.351   1_556  D
C237        H239   1.086       .  S
C238        H240   1.087       .  S
C241        C242   1.351       .  D
C241        H243   1.087       .  S
C242        C296   1.478   1_545  S
C242        H244   1.086       .  S
C245        C246   1.352       .  D
C245        H247   1.087       .  S
C246        H248   1.086       .  S
C249        C794   1.357   1_455  D
C249        H251   1.086       .  S
C250        C793   1.357       .  D
C250        H252   1.086       .  S
C253       C1070   1.352   1_444  D
C253        H255   1.087       .  S
C254       C1069   1.351   1_556  D
C254        H256   1.087       .  S
C257        C258   1.352       .  D
C257        H259   1.087       .  S
C258        H260   1.086       .  S
C261        C274   1.476       .  S
C261        C262   1.352       .  D
C261        H535   1.086       .  S
C262        H264   1.087       .  S
H263        C533   1.086       .  S
C265        C266   1.352   1_554  D
C265        H267   1.086       .  S
C266        H268   1.087       .  S
C269        C270   1.352   1_556  D
C269        H271   1.086       .  S
C270        H272   1.087       .  S
O273       Al281   1.879       .  S
O273        C832   1.256   1_455  A
C274        O284   1.255       .  A
C274        O275   1.267       .  A
O275       Al277   1.949       .  S
O276       Al277   1.850       .  S
O276        C278   1.255       .  A
Al277       O285   1.869       .  S
Al277       O831   1.932   1_455  S
Al277       O286   1.779       .  S
C278        O291   1.271       .  A
C278        C525   1.461   1_556  S
O279       Al281   1.869       .  S
O279        C289   1.252       .  A
O280       Al290   1.880       .  S
O280        C293   1.261       .  A
Al281       O294   1.948       .  S
Al281       O291   1.948       .  S
Al281       O286   1.771       .  S
O282       Al290   1.940       .  S
O282        C289   1.266       .  A
O283       Al290   1.969       .  S
O283        C292   1.276       .  A
O284       Al290   1.883       .  S
O285        C292   1.257       .  A
O286       Al290   1.777       .  S
O287       Al821   1.930       .  S
O287        C288   1.263       .  A
C288        O817   1.255       .  A
C288        C541   1.469       .  S
C289        C538   1.473       .  S
C292        C521   1.479       .  S
C293        O294   1.272       .  A
C293        C529   1.477       .  S
O295       Al303   1.947       .  S
O295        C310   1.273       .  A
C296        O306   1.267       .  A
C296        O297   1.256       .  A
O297       Al299   1.885       .  S
O298       Al299   1.939       .  S
O298        C300   1.266       .  A
Al299       O307   1.971       .  S
Al299       O309   1.879       .  S
Al299       O308   1.777       .  S
C300        O313   1.253       .  A
C300        C510   1.476       .  S
O301       Al303   1.950       .  S
O301        C311   1.272       .  A
O302       Al856   1.932   1_455  S
O302        C315   1.263       .  A
Al303       O860   1.878       .  S
Al303       O313   1.874       .  S
Al303       O308   1.773       .  S
O304       Al312   1.846       .  S
O304        C311   1.255       .  A
O305       Al312   1.870       .  S
O305        C314   1.257       .  A
O306       Al312   1.950       .  S
O307        C314   1.276       .  A
O308       Al312   1.779       .  S
O309        C310   1.261       .  A
C310        C517   1.475       .  S
C311        C526   1.462   1_554  S
Al312       O846   1.930       .  S
C314        C502   1.480       .  S
C315        O316   1.255   1_455  A
C315        C505   1.469       .  S
O316       Al847   1.877       .  S
O317       Al325   1.947       .  S
O317        C332   1.273       .  A
C318        O328   1.268       .  A
C318        O319   1.256       .  A
C318        C530   1.476       .  S
O319       Al321   1.883       .  S
O320       Al321   1.940       .  S
O320        C322   1.266       .  A
Al321       O329   1.971       .  S
Al321       O331   1.879       .  S
Al321       O330   1.778       .  S
C322        O335   1.252       .  A
C322        C506   1.475       .  S
O323       Al325   1.947       .  S
O323        C333   1.271       .  A
O324       Al334   1.932       .  S
O324        C337   1.263       .  A
Al325       O338   1.879       .  S
Al325       O335   1.871       .  S
Al325       O330   1.772       .  S
O326       Al334   1.847       .  S
O326        C333   1.254       .  A
O327       Al334   1.870       .  S
O327        C336   1.257       .  A
O328       Al334   1.949       .  S
O329        C336   1.276       .  A
O330       Al334   1.778       .  S
O331        C332   1.261       .  A
C332        C534   1.476       .  S
C333        C497   1.460   1_556  S
C336        C493   1.480       .  S
C337        O338   1.255       .  A
C337        C509   1.471       .  S
O339       Al347   1.878       .  S
O339        C354   1.255       .  A
C340        O350   1.255       .  A
C340        O341   1.267       .  A
C340        C518   1.475       .  S
O341       Al343   1.948       .  S
O342       Al343   1.846       .  S
O342        C344   1.254       .  A
Al343       O351   1.869       .  S
Al343       O353   1.931       .  S
Al343       O352   1.779       .  S
C344        O357   1.271       .  A
C344        C498   1.462   1_554  S
O345       Al347   1.872       .  S
O345        C355   1.253       .  A
O346       Al356   1.879       .  S
O346        C359   1.261       .  A
Al347       O360   1.947       .  S
Al347       O357   1.951       .  S
Al347       O352   1.772       .  S
O348       Al356   1.939       .  S
O348        C355   1.266       .  A
O349       Al356   1.968       .  S
O349        C358   1.275       .  A
O350       Al356   1.881       .  S
O351        C358   1.257       .  A
O352       Al356   1.776       .  S
O353        C354   1.263       .  A
C354        C537   1.467       .  S
C355        C542   1.474       .  S
C358        C490   1.478       .  S
C359        O360   1.273       .  A
C359        C513   1.476       .  S
O361       Al369   1.878       .  S
O361        C920   1.255       .  A
C362        O372   1.256       .  A
C362        O363   1.267       .  A
O363       Al365   1.949       .  S
O364       Al365   1.846       .  S
O364        C366   1.254       .  A
Al365       O373   1.870       .  S
Al365       O919   1.931       .  S
Al365       O374   1.778       .  S
C366        O379   1.272       .  A
C366        C477   1.462       .  S
O367       Al369   1.874       .  S
O367        C377   1.253       .  A
O368       Al378   1.880       .  S
O368        C381   1.261       .  A
Al369       O382   1.949       .  S
Al369       O379   1.951       .  S
Al369       O374   1.772       .  S
O370       Al378   1.938       .  S
O370        C377   1.266       .  A
O371       Al378   1.970       .  S
O371        C380   1.275       .  A
O372       Al378   1.884       .  S
O373        C380   1.257       .  A
O374       Al378   1.776       .  S
O375       Al909   1.933   1_455  S
O375        C376   1.263       .  A
C376        O905   1.255   1_455  A
C376        C485   1.469       .  S
C377        C481   1.474       .  S
C380        C522   1.480       .  S
C381        O382   1.273       .  A
C381        C474   1.477       .  S
O383       Al391   1.946       .  S
O383        C398   1.272       .  A
C384        O394   1.267       .  A
C384        O385   1.256       .  A
O385       Al387   1.883       .  S
O386       Al387   1.937       .  S
O386        C388   1.265       .  A
Al387       O395   1.968       .  S
Al387       O397   1.880       .  S
Al387       O396   1.777       .  S
C388        O401   1.252       .  A
C388        C457   1.473       .  S
O389       Al391   1.948       .  S
O389        C399   1.271       .  A
O390       Al944   1.932       .  S
O390        C403   1.263       .  A
Al391       O404   1.878       .  S
Al391       O401   1.871       .  S
Al391       O396   1.772       .  S
O392       Al400   1.847       .  S
O392        C399   1.254       .  A
O393       Al400   1.870       .  S
O393        C402   1.257       .  A
O394       Al400   1.948       .  S
O395        C402   1.275       .  A
O396       Al400   1.778       .  S
O397        C398   1.261       .  A
C398        C465   1.476       .  S
C399        C478   1.461       .  S
Al400       O934   1.930   1_455  S
C402        C501   1.480       .  S
C403        O948   1.256       .  A
C403        C453   1.470       .  S
O404        C947   1.255   1_455  A
O405       Al413   1.947       .  S
O405        C420   1.272       .  A
C406        O416   1.267       .  A
C406        O407   1.256       .  A
C406        C473   1.476       .  S
O407       Al409   1.883       .  S
O408       Al409   1.941       .  S
O408        C410   1.266       .  A
Al409       O417   1.971       .  S
Al409       O419   1.880       .  S
Al409       O418   1.776       .  S
C410        O423   1.253       .  A
C410        C454   1.475       .  S
O411       Al413   1.951       .  S
O411        C421   1.271       .  A
O412       Al422   1.930       .  S
O412        C425   1.263       .  A
Al413       O426   1.878       .  S
Al413       O423   1.873       .  S
Al413       O418   1.772       .  S
O414       Al422   1.848       .  S
O414        C421   1.255       .  A
O415       Al422   1.869       .  S
O415        C424   1.257       .  A
O416       Al422   1.948       .  S
O417        C424   1.276       .  A
O418       Al422   1.779       .  S
O419        C420   1.261       .  A
C420        C469   1.477       .  S
C421        C450   1.463       .  S
C424        C494   1.480       .  S
C425        O426   1.255       .  A
C425        C458   1.467       .  S
O427       Al435   1.879       .  S
O427        C442   1.256       .  A
C428        O438   1.256       .  A
C428        O429   1.267       .  A
C428        C466   1.476       .  S
O429       Al431   1.948       .  S
O430       Al431   1.848       .  S
O430        C432   1.255       .  A
Al431       O439   1.868       .  S
Al431       O441   1.931       .  S
Al431       O440   1.780       .  S
C432        O445   1.271       .  A
C432        C449   1.462       .  S
O433       Al435   1.873       .  S
O433        C443   1.253       .  A
O434       Al444   1.882       .  S
O434        C447   1.261       .  A
Al435       O448   1.947       .  S
Al435       O445   1.950       .  S
Al435       O440   1.772       .  S
O436       Al444   1.938       .  S
O436        C443   1.266       .  A
O437       Al444   1.969       .  S
O437        C446   1.275       .  A
O438       Al444   1.882       .  S
O439        C446   1.257       .  A
O440       Al444   1.778       .  S
O441        C442   1.263       .  A
C442        C482   1.469       .  S
C443        C486   1.474       .  S
C446        C489   1.479       .  S
C447        O448   1.273       .  A
C447        C462   1.477       .  S
C449        C450   1.352       .  D
C449        H451   1.087       .  S
C450        H452   1.087       .  S
C453        C454   1.352       .  D
C453        H455   1.086       .  S
C454        H456   1.087       .  S
C457        C458   1.350       .  D
C457        H459   1.087       .  S
C458        H460   1.086       .  S
C461        C462   1.352       .  D
C461        H463   1.086       .  S
C462        H464   1.087       .  S
C465        C466   1.351       .  D
C465        H467   1.087       .  S
C466        H468   1.086       .  S
C469        C470   1.352       .  D
C469        H471   1.087   1_565  S
C473        C474   1.352       .  D
C473        H475   1.086       .  S
C474        H476   1.087       .  S
C477        C750   1.353       .  D
C477        H479   1.087       .  S
C478        C749   1.351   1_465  D
C478        H480   1.087       .  S
C481        C482   1.351       .  D
C481        H483   1.087       .  S
C482        H484   1.086       .  S
C485        C486   1.351       .  D
C485        H487   1.086       .  S
C486        H488   1.087       .  S
C489        C490   1.356       .  D
C489        H491   1.086       .  S
C490        H492   1.086       .  S
C493        C494   1.357       .  D
C493        H495   1.086       .  S
C494        H496   1.086       .  S
C497        C498   1.352   1_554  D
C497        H499   1.087       .  S
C498        H500   1.087       .  S
C501       C1046   1.356   1_455  D
C501        H503   1.086       .  S
C502       C1045   1.357       .  D
C502        H504   1.086       .  S
C505        C506   1.352   1_554  D
C505        H507   1.086       .  S
C506        H508   1.087       .  S
C509        C510   1.352   1_556  D
C509        H511   1.086       .  S
C510        H512   1.087       .  S
C513        C514   1.352       .  D
C513        H515   1.087       .  S
C514        H516   1.086       .  S
C517        C518   1.351       .  D
C517        H519   1.087       .  S
C518        H520   1.086       .  S
C521       C1066   1.356   1_455  D
C521        H523   1.086       .  S
C522       C1065   1.356       .  D
C522        H524   1.086       .  S
C525        C798   1.351   1_454  D
C525        H527   1.087       .  S
C526        C797   1.352   1_566  D
C526        H528   1.087       .  S
C529        C530   1.352       .  D
C529        H531   1.087       .  S
C530        H532   1.086       .  S
C533        C534   1.351       .  D
C534        H536   1.087   1_565  S
C537        C538   1.351   1_554  D
C537        H539   1.086       .  S
C538        H540   1.087       .  S
C541        C542   1.351   1_556  D
C541        H543   1.086       .  S
C542        H544   1.087       .  S
O545       Al553   1.877       .  S
C546        O556   1.256       .  A
C546        O547   1.267       .  A
C546       C1077   1.476   1_545  S
O547       Al549   1.949       .  S
O548       Al549   1.847       .  S
O548        C550   1.254       .  A
Al549       O557   1.873       .  S
Al549       O558   1.779       .  S
C550        O563   1.271       .  A
C550        C797   1.462   1_556  S
O551       Al553   1.872       .  S
O551        C561   1.252       .  A
O552       Al562   1.881       .  S
O552        C565   1.262       .  A
Al553       O566   1.947       .  S
Al553       O563   1.949       .  S
Al553       O558   1.772       .  S
O554       Al562   1.940       .  S
O554        C561   1.266       .  A
O555       Al562   1.970       .  S
O555        C564   1.276       .  A
O556       Al562   1.883       .  S
O557        C564   1.257       .  A
O558       Al562   1.777       .  S
O559        C560   1.263       .  A
C560        C813   1.469       .  S
C561        C810   1.475       .  S
C564        C793   1.481       .  S
C565        O566   1.273       .  A
C565        C801   1.477       .  S
O567       Al575   1.945       .  S
O567        C582   1.272       .  A
C568        O578   1.267       .  A
C568        O569   1.255       .  A
C568       C1058   1.477       .  S
O569       Al571   1.882       .  S
O570       Al571   1.937       .  S
O570        C572   1.265       .  A
Al571       O579   1.968       .  S
Al571       O581   1.880       .  S
Al571       O580   1.778       .  S
C572        O585   1.253       .  A
C572        C782   1.475       .  S
O573       Al575   1.947       .  S
O573        C583   1.271       .  A
O574        C587   1.263       .  A
Al575       O585   1.873       .  S
Al575       O580   1.773       .  S
O576       Al584   1.849       .  S
O576        C583   1.255       .  A
O577       Al584   1.871       .  S
O577        C586   1.257       .  A
O578       Al584   1.949       .  S
O579        C586   1.275       .  A
O580       Al584   1.780       .  S
O581        C582   1.261       .  A
C582        C789   1.476       .  S
C583        C798   1.462   1_554  S
C586        C774   1.480       .  S
C587        O588   1.256       .  A
C587        C777   1.468       .  S
O589       Al597   1.948       .  S
O589        C604   1.273       .  A
C590        O600   1.267       .  A
C590        O591   1.256       .  A
C590        C802   1.477       .  S
O591       Al593   1.884       .  S
O592       Al593   1.938       .  S
O592        C594   1.266       .  A
Al593       O601   1.971       .  S
Al593       O603   1.881       .  S
Al593       O602   1.777       .  S
C594        O607   1.252       .  A
C594        C778   1.474       .  S
O595       Al597   1.951       .  S
O595        C605   1.272       .  A
O596       Al606   1.930       .  S
O596        C609   1.263       .  A
Al597       O610   1.880       .  S
Al597       O607   1.871       .  S
Al597       O602   1.772       .  S
O598       Al606   1.845       .  S
O598        C605   1.254       .  A
O599       Al606   1.867       .  S
O599        C608   1.257       .  A
O600       Al606   1.948       .  S
O601        C608   1.276       .  A
O602       Al606   1.779       .  S
O603        C604   1.261       .  A
C604        C806   1.477       .  S
C605        C769   1.461   1_556  S
C608        C765   1.479       .  S
C609        O610   1.256       .  A
C609        C781   1.469       .  S
O611       Al619   1.878       .  S
O611        C626   1.255       .  A
C612        O622   1.256       .  A
C612        O613   1.268       .  A
C612        C790   1.476       .  S
O613       Al615   1.950       .  S
O614       Al615   1.846       .  S
O614        C616   1.254       .  A
Al615       O623   1.870       .  S
Al615       O625   1.932       .  S
Al615       O624   1.778       .  S
C616        O629   1.271       .  A
C616        C770   1.461   1_554  S
O617       Al619   1.872       .  S
O617        C627   1.253       .  A
O618       Al628   1.878       .  S
O618        C631   1.261       .  A
Al619       O632   1.948       .  S
Al619       O629   1.949       .  S
Al619       O624   1.772       .  S
O620       Al628   1.940       .  S
O620        C627   1.266       .  A
O621       Al628   1.970       .  S
O621        C630   1.275       .  A
O622       Al628   1.880       .  S
O623        C630   1.257       .  A
O624       Al628   1.777       .  S
O625        C626   1.263       .  A
C626        C809   1.469       .  S
C627        C814   1.474       .  S
C630        C762   1.481       .  S
C631        O632   1.273       .  A
C631        C785   1.475       .  S
O633       Al641   1.878       .  S
C634        O644   1.256       .  A
C634        O635   1.267       .  A
C634       C1014   1.477   1_545  S
O635       Al637   1.949       .  S
O636       Al637   1.847       .  S
O636        C638   1.255       .  A
Al637       O645   1.869       .  S
Al637       O646   1.779       .  S
C638        O651   1.271       .  A
C638        C749   1.461       .  S
O639       Al641   1.870       .  S
O639        C649   1.252       .  A
O640       Al650   1.879       .  S
O640        C653   1.261       .  A
Al641       O654   1.946       .  S
Al641       O651   1.949       .  S
Al641       O646   1.772       .  S
O642       Al650   1.941       .  S
O642        C649   1.266       .  A
O643       Al650   1.971       .  S
O643        C652   1.276       .  A
O644       Al650   1.883       .  S
O645        C652   1.257       .  A
O646       Al650   1.777       .  S
O647        C648   1.263       .  A
C648        C757   1.469       .  S
C649        C753   1.474       .  S
C652        C794   1.480       .  S
C653        O654   1.272       .  A
C653        C746   1.476       .  S
O655       Al663   1.948       .  S
O655        C670   1.273       .  A
C656        O666   1.267       .  A
C656        O657   1.256       .  A
C656       C1005   1.476       .  S
O657       Al659   1.884       .  S
O658       Al659   1.938       .  S
O658        C660   1.266       .  A
Al659       O667   1.970       .  S
Al659       O669   1.879       .  S
Al659       O668   1.776       .  S
C660        O673   1.252       .  A
C660        C729   1.473       .  S
O661       Al663   1.952       .  S
O661        C671   1.272       .  A
O662        C675   1.263       .  A
Al663       O676   1.879       .  S
Al663       O673   1.871       .  S
Al663       O668   1.771       .  S
O664       Al672   1.846       .  S
O664        C671   1.254       .  A
O665       Al672   1.867       .  S
O665        C674   1.257       .  A
O666       Al672   1.949       .  S
O667        C674   1.276       .  A
O668       Al672   1.778       .  S
O669        C670   1.261       .  A
C670        C737   1.477       .  S
C671        C750   1.462       .  S
C674        C773   1.478       .  S
C675        C725   1.470       .  S
O677       Al685   1.946       .  S
O677        C692   1.272       .  A
C678        O688   1.267       .  A
C678        O679   1.256       .  A
C678        C745   1.476       .  S
O679       Al681   1.882       .  S
O680       Al681   1.940       .  S
O680        C682   1.266       .  A
Al681       O689   1.970       .  S
Al681       O691   1.882       .  S
Al681       O690   1.777       .  S
C682        O695   1.253       .  A
C682        C726   1.475       .  S
O683       Al685   1.949       .  S
O683        C693   1.271       .  A
O684       Al694   1.931       .  S
O684        C697   1.263       .  A
Al685       O698   1.878       .  S
Al685       O695   1.874       .  S
Al685       O690   1.772       .  S
O686       Al694   1.847       .  S
O686        C693   1.255       .  A
O687       Al694   1.868       .  S
O687        C696   1.257       .  A
O688       Al694   1.948       .  S
O689        C696   1.276       .  A
O690       Al694   1.780       .  S
O691        C692   1.261       .  A
C692        C741   1.477       .  S
C693        C722   1.461       .  S
C696        C766   1.479       .  S
C697        O698   1.255       .  A
C697        C730   1.468       .  S
O699       Al707   1.878       .  S
O699        C714   1.255       .  A
C700        O710   1.255       .  A
C700        O701   1.267       .  A
C700        C738   1.476       .  S
O701       Al703   1.948       .  S
O702       Al703   1.847       .  S
O702        C704   1.254       .  A
Al703       O711   1.871       .  S
Al703       O713   1.931       .  S
Al703       O712   1.779       .  S
C704        O717   1.271       .  A
C704        C721   1.462       .  S
O705       Al707   1.870       .  S
O705        C715   1.252       .  A
O706       Al716   1.881       .  S
O706        C719   1.261       .  A
Al707       O720   1.948       .  S
Al707       O717   1.950       .  S
Al707       O712   1.772       .  S
O708       Al716   1.941       .  S
O708        C715   1.266       .  A
O709       Al716   1.970       .  S
O709        C718   1.276       .  A
O710       Al716   1.883       .  S
O711        C718   1.257       .  A
O712       Al716   1.777       .  S
O713        C714   1.263       .  A
C714        C754   1.468       .  S
C715        C758   1.474       .  S
C718        C761   1.480       .  S
C719        O720   1.273       .  A
C719        C734   1.477       .  S
C721        C722   1.352       .  D
C721        H723   1.087       .  S
C722        H724   1.087       .  S
C725        C726   1.352       .  D
C725        H727   1.086       .  S
C726        H728   1.087       .  S
C729        C730   1.351       .  D
C729        H731   1.087       .  S
C730        H732   1.086       .  S
C733        C928   1.477   1_545  S
C733        C734   1.352       .  D
C733        H735   1.086       .  S
C734        H736   1.087       .  S
C737        C738   1.352       .  D
C737        H739   1.087       .  S
C738        H740   1.086       .  S
C741        C742   1.351       .  D
C741        H743   1.087       .  S
C742        C906   1.477       .  S
C742       H1016   1.086       .  S
H744       C1014   1.086       .  S
C745        C746   1.351       .  D
C745        H747   1.086       .  S
C746        H748   1.087       .  S
C749        H751   1.087       .  S
C750        H752   1.087       .  S
C753        C754   1.352       .  D
C753        H755   1.087       .  S
C754        H756   1.086       .  S
C757        C758   1.352       .  D
C757        H759   1.086       .  S
C758        H760   1.087       .  S
C761        C762   1.357       .  D
C761        H763   1.086       .  S
C762        H764   1.086       .  S
C765        C766   1.357       .  D
C765        H767   1.086       .  S
C766        H768   1.086       .  S
C769        C770   1.352   1_554  D
C769        H771   1.087       .  S
C770        H772   1.087       .  S
C773        H775   1.086       .  S
C774        H776   1.086       .  S
C777        C778   1.351   1_554  D
C777        H779   1.086       .  S
C778        H780   1.087       .  S
C781        C782   1.351   1_556  D
C781        H783   1.086       .  S
C782        H784   1.087       .  S
C785        C786   1.351       .  D
C785        H787   1.087       .  S
C786        C840   1.475   1_545  S
C786        H788   1.086       .  S
C789        C790   1.351       .  D
C789        H791   1.087       .  S
C790        H792   1.086       .  S
C793        H795   1.086       .  S
C794        H796   1.086       .  S
C797        H799   1.087       .  S
C798        H800   1.087       .  S
C801        C802   1.351       .  D
C801        H803   1.087       .  S
C802        H804   1.086       .  S
C805        C818   1.477       .  S
C805        C806   1.352       .  D
C805       H1079   1.086       .  S
C806        H808   1.087       .  S
H807       C1077   1.086       .  S
C809        C810   1.352   1_554  D
C809        H811   1.086       .  S
C810        H812   1.087       .  S
C813        C814   1.351   1_556  D
C813        H815   1.086       .  S
C814        H816   1.087       .  S
O817       Al825   1.879       .  S
C818        O828   1.256       .  A
C818        O819   1.267       .  A
O819       Al821   1.949       .  S
O820       Al821   1.846       .  S
O820        C822   1.254       .  A
Al821       O829   1.871       .  S
Al821       O830   1.779       .  S
C822        O835   1.271       .  A
C822       C1069   1.461   1_556  S
O823       Al825   1.873       .  S
O823        C833   1.252       .  A
O824       Al834   1.880       .  S
O824        C837   1.261       .  A
Al825       O838   1.946       .  S
Al825       O835   1.947       .  S
Al825       O830   1.773       .  S
O826       Al834   1.938       .  S
O826        C833   1.265       .  A
O827       Al834   1.969       .  S
O827        C836   1.275       .  A
O828       Al834   1.883       .  S
O829        C836   1.257       .  A
O830       Al834   1.777       .  S
O831        C832   1.263       .  A
C832       C1085   1.470       .  S
C833       C1082   1.475       .  S
C836       C1065   1.480       .  S
C837        O838   1.272       .  A
C837       C1073   1.476       .  S
O839       Al847   1.948       .  S
O839        C854   1.273       .  A
C840        O850   1.267       .  A
C840        O841   1.256       .  A
O841       Al843   1.882       .  S
O842       Al843   1.940       .  S
O842        C844   1.266       .  A
Al843       O851   1.969       .  S
Al843       O853   1.883       .  S
Al843       O852   1.778       .  S
C844        O857   1.252       .  A
C844       C1054   1.474       .  S
O845       Al847   1.950       .  S
O845        C855   1.271       .  A
O846        C859   1.262       .  A
Al847       O857   1.870       .  S
Al847       O852   1.771       .  S
O848       Al856   1.850       .  S
O848        C855   1.255       .  A
O849       Al856   1.871       .  S
O849        C858   1.257       .  A
O850       Al856   1.947       .  S
O851        C858   1.276       .  A
O852       Al856   1.780       .  S
O853        C854   1.262       .  A
C854       C1061   1.478       .  S
C855       C1070   1.463   1_554  S
C858       C1046   1.480       .  S
C859        O860   1.255       .  A
C859       C1049   1.468       .  S
O861       Al869   1.947       .  S
O861        C876   1.273       .  A
C862        O872   1.267       .  A
C862        O863   1.256       .  A
C862       C1074   1.476       .  S
O863       Al865   1.882       .  S
O864       Al865   1.939       .  S
O864        C866   1.266       .  A
Al865       O873   1.968       .  S
Al865       O875   1.880       .  S
Al865       O874   1.776       .  S
C866        O879   1.252       .  A
C866       C1050   1.473       .  S
O867       Al869   1.949       .  S
O867        C877   1.271       .  A
O868       Al878   1.934       .  S
O868        C881   1.264       .  A
Al869       O882   1.877       .  S
Al869       O879   1.870       .  S
Al869       O874   1.771       .  S
O870       Al878   1.846       .  S
O870        C877   1.254       .  A
O871       Al878   1.869       .  S
O871        C880   1.257       .  A
O872       Al878   1.949       .  S
O873        C880   1.275       .  A
O874       Al878   1.778       .  S
O875        C876   1.261       .  A
C876       C1078   1.476       .  S
C877       C1041   1.461   1_556  S
C880       C1037   1.478       .  S
C881        O882   1.255       .  A
C881       C1053   1.469       .  S
O883       Al891   1.880       .  S
O883        C898   1.256       .  A
C884        O894   1.256       .  A
C884        O885   1.267       .  A
C884       C1062   1.478       .  S
O885       Al887   1.949       .  S
O886       Al887   1.846       .  S
O886        C888   1.254       .  A
Al887       O895   1.870       .  S
Al887       O897   1.930       .  S
Al887       O896   1.779       .  S
C888        O901   1.271       .  A
C888       C1042   1.461   1_554  S
O889       Al891   1.873       .  S
O889        C899   1.253       .  A
O890       Al900   1.881       .  S
O890        C903   1.261       .  A
Al891       O904   1.947       .  S
Al891       O901   1.950       .  S
Al891       O896   1.773       .  S
O892       Al900   1.939       .  S
O892        C899   1.266       .  A
O893       Al900   1.972       .  S
O893        C902   1.276       .  A
O894       Al900   1.886       .  S
O895        C902   1.257       .  A
O896       Al900   1.776       .  S
O897        C898   1.263       .  A
C898       C1081   1.469       .  S
C899       C1086   1.475       .  S
C902       C1034   1.481       .  S
C903        O904   1.273       .  A
C903       C1057   1.477       .  S
O905       Al913   1.878       .  S
C906        O916   1.256       .  A
C906        O907   1.267       .  A
O907       Al909   1.950       .  S
O908       Al909   1.846       .  S
O908        C910   1.254       .  A
Al909       O917   1.868       .  S
Al909       O918   1.778       .  S
C910        O923   1.271       .  A
C910       C1021   1.460       .  S
O911       Al913   1.870       .  S
O911        C921   1.252       .  A
O912       Al922   1.879       .  S
O912        C925   1.261       .  A
Al913       O926   1.947       .  S
Al913       O923   1.948       .  S
Al913       O918   1.772       .  S
O914       Al922   1.939       .  S
O914        C921   1.266       .  A
O915       Al922   1.970       .  S
O915        C924   1.276       .  A
O916       Al922   1.884       .  S
O917        C924   1.257       .  A
O918       Al922   1.776       .  S
O919        C920   1.263       .  A
C920       C1029   1.469       .  S
C921       C1025   1.473       .  S
C924       C1066   1.479       .  S
C925        O926   1.272       .  A
C925       C1018   1.476       .  S
O927       Al935   1.948       .  S
O927        C942   1.273       .  A
C928        O938   1.267       .  A
C928        O929   1.256       .  A
O929       Al931   1.883       .  S
O930       Al931   1.940       .  S
O930        C932   1.266       .  A
Al931       O939   1.970       .  S
Al931       O941   1.880       .  S
Al931       O940   1.777       .  S
C932        O945   1.252       .  A
C932       C1001   1.475       .  S
O933       Al935   1.949       .  S
O933        C943   1.271       .  A
O934        C947   1.263       .  A
Al935       O948   1.879       .  S
Al935       O945   1.871       .  S
Al935       O940   1.773       .  S
O936       Al944   1.848       .  S
O936        C943   1.255       .  A
O937       Al944   1.870       .  S
O937        C946   1.257       .  A
O938       Al944   1.950       .  S
O939        C946   1.276       .  A
O940       Al944   1.779       .  S
O941        C942   1.261       .  A
C942       C1009   1.477       .  S
C943       C1022   1.461       .  S
C946       C1045   1.481       .  S
C947        C997   1.468       .  S
O949       Al957   1.947       .  S
O949        C964   1.273       .  A
C950        O960   1.267       .  A
C950        O951   1.256       .  A
C950       C1017   1.476       .  S
O951       Al953   1.883       .  S
O952       Al953   1.937       .  S
O952        C954   1.265       .  A
Al953       O961   1.968       .  S
Al953       O963   1.881       .  S
Al953       O962   1.777       .  S
C954        O967   1.252       .  A
C954        C998   1.473       .  S
O955       Al957   1.950       .  S
O955        C965   1.271       .  A
O956       Al966   1.932       .  S
O956        C969   1.263       .  A
Al957       O970   1.878       .  S
Al957       O967   1.871       .  S
Al957       O962   1.772       .  S
O958       Al966   1.845       .  S
O958        C965   1.254       .  A
O959       Al966   1.869       .  S
O959        C968   1.257       .  A
O960       Al966   1.949       .  S
O961        C968   1.275       .  A
O962       Al966   1.778       .  S
O963        C964   1.261       .  A
C964       C1013   1.477       .  S
C965        C994   1.461       .  S
C968       C1038   1.478       .  S
C969        O970   1.255       .  A
C969       C1002   1.469       .  S
O971       Al979   1.877       .  S
O971        C986   1.255       .  A
C972        O982   1.256       .  A
C972        O973   1.267       .  A
C972       C1010   1.477       .  S
O973       Al975   1.949       .  S
O974       Al975   1.846       .  S
O974        C976   1.254       .  A
Al975       O983   1.870       .  S
Al975       O985   1.932       .  S
Al975       O984   1.779       .  S
C976        O989   1.271       .  A
C976        C993   1.460       .  S
O977       Al979   1.872       .  S
O977        C987   1.253       .  A
O978       Al988   1.882       .  S
O978        C991   1.261       .  A
Al979       O992   1.946       .  S
Al979       O989   1.948       .  S
Al979       O984   1.772       .  S
O980       Al988   1.939       .  S
O980        C987   1.266       .  A
O981       Al988   1.971       .  S
O981        C990   1.276       .  A
O982       Al988   1.883       .  S
O983        C990   1.257       .  A
O984       Al988   1.776       .  S
O985        C986   1.263       .  A
C986       C1026   1.468       .  S
C987       C1030   1.474       .  S
C990       C1033   1.481       .  S
C991        O992   1.272       .  A
C991       C1006   1.477       .  S
C993        C994   1.352       .  D
C993        H995   1.087       .  S
C994        H996   1.087       .  S
C997        C998   1.351       .  D
C997        H999   1.086       .  S
C998       H1000   1.087       .  S
C1001      C1002   1.352       .  D
C1001      H1003   1.087       .  S
C1002      H1004   1.086       .  S
C1005      C1006   1.351       .  D
C1005      H1007   1.086       .  S
C1006      H1008   1.087       .  S
C1009      C1010   1.352       .  D
C1009      H1011   1.087       .  S
C1010      H1012   1.086       .  S
C1013      C1014   1.351       .  D
C1013      H1015   1.087   1_565  S
C1017      C1018   1.351       .  D
C1017      H1019   1.086       .  S
C1018      H1020   1.087       .  S
C1021      H1023   1.087       .  S
C1022      H1024   1.087       .  S
C1025      C1026   1.351       .  D
C1025      H1027   1.087       .  S
C1026      H1028   1.086       .  S
C1029      C1030   1.351       .  D
C1029      H1031   1.086       .  S
C1030      H1032   1.087       .  S
C1033      C1034   1.357       .  D
C1033      H1035   1.086       .  S
C1034      H1036   1.086       .  S
C1037      C1038   1.356       .  D
C1037      H1039   1.086       .  S
C1038      H1040   1.086       .  S
C1041      C1042   1.352   1_554  D
C1041      H1043   1.087       .  S
C1042      H1044   1.087       .  S
C1045      H1047   1.086       .  S
C1046      H1048   1.086       .  S
C1049      C1050   1.351   1_554  D
C1049      H1051   1.086       .  S
C1050      H1052   1.087       .  S
C1053      C1054   1.352   1_556  D
C1053      H1055   1.086       .  S
C1054      H1056   1.087       .  S
C1057      C1058   1.352       .  D
C1057      H1059   1.087       .  S
C1058      H1060   1.086       .  S
C1061      C1062   1.351       .  D
C1061      H1063   1.087       .  S
C1062      H1064   1.086       .  S
C1065      H1067   1.086       .  S
C1066      H1068   1.086       .  S
C1069      H1071   1.087       .  S
C1070      H1072   1.087       .  S
C1073      C1074   1.351       .  D
C1073      H1075   1.087       .  S
C1074      H1076   1.086       .  S
C1077      C1078   1.351       .  D
C1078      H1080   1.087   1_565  S
C1081      C1082   1.351   1_554  D
C1081      H1083   1.086       .  S
C1082      H1084   1.087       .  S
C1085      C1086   1.351   1_556  D
C1085      H1087   1.086       .  S
C1086      H1088   1.087       .  S
