geometry optimzed in LAMMPS
_audit_creation_date              2020-12-01 
_audit_creation_method            'lammps2cif' 
_symmetry_space_group_name_H-M    'P1' 
_symmetry_Int_Tables_number       1 
_symmetry_cell_setting            triclinic 
loop_ 
_symmetry_equiv_pos_as_xyz 
  x,y,z 
_cell_length_a                    29.75972488 
_cell_length_b                    31.826190195494757 
_cell_length_c                    35.197195736527824 
_cell_angle_alpha                 90.13116561273311 
_cell_angle_beta                  91.4645809239271 
_cell_angle_gamma                 88.90339766985473 
loop_ 
_atom_site_label 
_atom_site_type_symbol 
_atom_site_fract_x 
_atom_site_fract_y 
_atom_site_fract_z 
_atom_site_charge 
O1          O  0.80686707  0.34807041  0.39291212    -0.81000
C2          C  0.86702055  0.24898393  0.27193191     0.98400
O3          O  0.88451540  0.28326934  0.28195372    -0.68500
O4          O  0.81247858  0.33123798  0.28466680    -0.73700
Al5        Al  0.86140857  0.32335730  0.31827956     1.49000
C6          C  0.77230027  0.33952468  0.29300999     0.93600
O7          O  0.74543474  0.25647677  0.34838318    -0.79900
O8          O  0.85868091  0.23746901  0.40314269    -0.73500
Al9        Al  0.78075164  0.30127634  0.36861131     1.90100
O10         O  0.79683261  0.20675399  0.35141133    -0.72500
O11         O  0.91529921  0.24931131  0.34876529    -0.72400
O12         O  0.84837920  0.22638028  0.29606647    -0.78000
O13         O  0.91386360  0.31841129  0.35020950    -0.76200
O14         O  0.83138002  0.28628960  0.34572557    -1.12400
O15         O  0.84400143  0.37293498  0.34577653    -0.71600
C16         C  0.82289530  0.37875310  0.37589482     0.99200
C17         C  0.75634785  0.21819445  0.34692387     0.95600
Al18       Al  0.85305937  0.23414394  0.34954710     1.55600
O19         O  0.75799293  0.33381531  0.32617204    -0.76200
C20         C  0.93466805  0.28378835  0.35514298     0.99700
C21         C  0.83016791  0.25152116  0.42617366     0.94600
O22         O  0.79535128  0.27163391  0.41470239    -0.81500
O23         O  0.69718517  0.45226342  0.07938800    -0.81000
C24         C  0.62582295  0.46288275  0.22152229     0.98400
O25         O  0.64136761  0.48843106  0.19812550    -0.70100
O26         O  0.68858806  0.51538081  0.14297865    -0.73700
Al27       Al  0.63617775  0.48312721  0.14464448     1.49000
C28         C  0.72961104  0.50765023  0.14861735     0.93600
O29         O  0.73976587  0.39161722  0.16734785    -0.79900
O30         O  0.65524271  0.34523215  0.14285246    -0.73500
Al31       Al  0.71478601  0.42283303  0.12518338     1.90100
O32         O  0.68324941  0.38468070  0.20617791    -0.72500
O33         O  0.58124713  0.39572673  0.14032485    -0.72400
O34         O  0.60900109  0.42880244  0.21013438    -0.78000
O35         O  0.57583116  0.46434444  0.14576478    -0.76200
O36         O  0.66207312  0.43232249  0.14690889    -1.12400
O37         O  0.63075744  0.48134866  0.09091302    -0.71600
C38         C  0.66089770  0.47030211  0.06798544     0.99200
C39         C  0.72454093  0.38161891  0.19926255     0.95600
Al40       Al  0.63432898  0.39194371  0.17232603     1.55600
O41         O  0.74437659  0.47047812  0.14716342    -0.76200
C42         C  0.55834480  0.42955077  0.13771382     0.99700
C43         C  0.68031947  0.34148535  0.11477371     0.94600
O44         O  0.69631746  0.37348507  0.09968474    -0.81500
O45         O  0.67396124  0.11135292  0.34251087    -0.81000
C46         C  0.63035646  0.00928971  0.46446353     0.98400
O47         O  0.60865173  0.04207444  0.45431128    -0.70100
O48         O  0.67635102  0.09294085  0.45043351    -0.73700
Al49       Al  0.62693762  0.08341915  0.41795704     1.49000
C50         C  0.71569878  0.10224464  0.44122358     0.93600
O51         O  0.74759896  0.02335551  0.38090347    -0.79900
O52         O  0.63451405  0.99647348  0.33359402    -0.73500
Al53       Al  0.70644794  0.06600396  0.36441545     1.90100
O54         O  0.70167576  0.45375413  0.39479024    -0.72500
O55         O  0.58039020  0.00600505  0.39018515    -0.72400
O56         O  0.64982820  0.48080064  0.44804294    -0.78000
O57         O  0.57365175  0.07512115  0.38692739    -0.76200
O58         O  0.65948856  0.04792833  0.38949430    -1.12400
O59         O  0.64013242  0.13536285  0.39177241    -0.71600
C60         C  0.66198862  0.14203628  0.36229006     0.99200
C61         C  0.74190742  0.46289953  0.40090480     0.95600
Al62       Al  0.64362717  0.99453910  0.38693898     1.55600
O63         O  0.72895480  0.09814439  0.40733922    -0.76200
C64         C  0.55674208  0.03881390  0.38370330     0.99700
C65         C  0.65888039  0.01296618  0.30906040     0.94600
O66         O  0.69106190  0.03657009  0.31856231    -0.81500
O67         O  0.79271614  0.19128225  0.16161590    -0.81000
C68         C  0.86659509  0.20433832  0.02142722     0.98400
O69         O  0.85372564  0.23027383  0.04617501    -0.70100
O70         O  0.80767784  0.25836462  0.10231509    -0.73700
Al71       Al  0.85766561  0.22099574  0.09941189     1.49000
C72         C  0.76622009  0.25507545  0.09631535     0.93600
O73         O  0.74830573  0.14271121  0.06771598    -0.79900
O74         O  0.82962235  0.08599229  0.09172977    -0.73500
Al75       Al  0.77425076  0.16738377  0.11333546     1.90100
O76         O  0.80639358  0.13246517  0.03085890    -0.72500
O77         O  0.90458912  0.12786925  0.09916061    -0.72400
O78         O  0.88299009  0.16909514  0.03144282    -0.78000
O79         O  0.91674355  0.19554316  0.09837769    -0.76200
O80         O  0.82814139  0.17326508  0.09347427    -1.12400
O81         O  0.86105167  0.21544792  0.15300662    -0.71600
C82         C  0.82936909  0.20614681  0.17467477     0.99200
C83         C  0.76468807  0.13398010  0.03562488     0.95600
Al84       Al  0.85374210  0.13220322  0.06589011     1.55600
O85         O  0.74891228  0.21943999  0.09489179    -0.76200
C86         C  0.93041288  0.15819299  0.10480751     0.99700
C87         C  0.80549300  0.08247928  0.12015217     0.94600
O88         O  0.78844756  0.11450727  0.13549908    -0.81500
O89         O  0.19589340  0.35310755  0.35036972    -0.81000
C90         C  0.11996261  0.26721569  0.47096981     0.98400
O91         O  0.10601380  0.30338196  0.46063065    -0.70100
O92         O  0.18241233  0.34082068  0.45690155    -0.73700
Al93       Al  0.13353342  0.33890646  0.42322595     1.49000
C94         C  0.22358153  0.34165796  0.44964048     0.93600
O95         O  0.23776695  0.25228253  0.39655633    -0.79900
O96         O  0.12439544  0.25205577  0.33962835    -0.73500
Al97       Al  0.21157508  0.30221868  0.37515863     1.90100
O98         O  0.17968651  0.21203190  0.39079624    -0.72500
O99         O  0.07011669  0.27313456  0.39463319    -0.72400
O100        O  0.13378141  0.24123153  0.44663094    -0.78000
O101        O  0.08079500  0.34093720  0.39109481    -0.76200
O102        O  0.15845908  0.29685994  0.39677408    -1.12400
O103        O  0.15778157  0.38432626  0.39478822    -0.71600
C104        C  0.18309316  0.38618558  0.36672729     0.99200
C105        C  0.22101540  0.21640612  0.39664065     0.95600
Al106      Al  0.12927409  0.24867177  0.39324517     1.55600
O107        O  0.23826476  0.33099119  0.41755904    -0.76200
C108        C  0.05543698  0.30978887  0.38705070     0.99700
C109        C  0.15573883  0.25981847  0.31719553     0.94600
O110        O  0.19280016  0.27465056  0.32905387    -0.81500
O111        O  0.30327892  0.43780491  0.17119672    -0.81000
C112        C  0.37097368  0.44995547  0.02651023     0.98400
O113        O  0.35727146  0.47513340  0.05151410    -0.70100
O114        O  0.31168575  0.50241567  0.10820616    -0.73700
Al115      Al  0.36294392  0.46652615  0.10477097     1.49000
C116        C  0.27008653  0.49727557  0.10450362     0.93600
O117        O  0.25374434  0.38281467  0.08237762    -0.79900
O118        O  0.33473584  0.33081041  0.09925013    -0.73500
Al119      Al  0.28278360  0.41103092  0.12484356     1.90100
O120        O  0.30630373  0.37733103  0.03942228    -0.72500
O121        O  0.41134746  0.37343566  0.10234250    -0.72400
O122        O  0.38450243  0.41349626  0.03566321    -0.78000
O123        O  0.42198393  0.44155251  0.10229510    -0.76200
O124        O  0.33411747  0.41819348  0.10097191    -1.12400
O125        O  0.36971703  0.46308584  0.15853462    -0.71600
C126        C  0.33998001  0.45415207  0.18207490     0.99200
C127        C  0.26572467  0.37487355  0.04872235     0.95600
Al128      Al  0.35742593  0.37722458  0.07195838     1.55600
O129        O  0.25409005  0.46108453  0.10587037    -0.76200
C130        C  0.43683414  0.40433400  0.10745041     0.99700
C131        C  0.31391440  0.32759965  0.12965924     0.94600
O132        O  0.30228245  0.35996325  0.14772156    -0.81500
O133        O  0.19002088  0.19624715  0.07997049    -0.81000
C134        C  0.11711099  0.21467960  0.22165967     0.98400
O135        O  0.13496233  0.23801925  0.19765097    -0.70100
O136        O  0.18426948  0.26026235  0.14218005    -0.73700
Al137      Al  0.13024104  0.23063324  0.14455384     1.49000
C138        C  0.22470825  0.25048464  0.14857626     0.93600
O139        O  0.22906700  0.13467419  0.16905762    -0.79900
O140        O  0.14474194  0.09188712  0.14706470    -0.73500
Al141      Al  0.20569131  0.16658260  0.12639400     1.90100
O142        O  0.17320609  0.13319220  0.20918811    -0.72500
O143        O  0.07223243  0.14526722  0.14232184    -0.72400
O144        O  0.10038121  0.18001060  0.21155463    -0.78000
O145        O  0.06944473  0.21421517  0.14604411    -0.76200
O146        O  0.15390581  0.17908604  0.14831561    -1.12400
O147        O  0.12459249  0.22711567  0.09115848    -0.71600
C148        C  0.15423313  0.21497676  0.06831525     0.99200
C149        C  0.21392703  0.12674008  0.20156126     0.95600
Al150      Al  0.12470888  0.14073191  0.17489182     1.55600
O151        O  0.23754940  0.21270733  0.14791036    -0.76200
C152        C  0.05090455  0.17987175  0.13837891     0.99700
C153        C  0.16922398  0.08690747  0.11865745     0.94600
O154        O  0.18350159  0.11836581  0.10156313    -0.81500
O155        O  0.29291038  0.09959478  0.39411311    -0.81000
C156        C  0.36880030  0.00477026  0.27698989     0.98400
O157        O  0.38130047  0.04134472  0.28558545    -0.70100
O158        O  0.30262805  0.07841305  0.28668180    -0.73700
Al159      Al  0.35181924  0.07929024  0.32034646     1.49000
C160        C  0.26177621  0.08244080  0.29469994     0.93600
O161        O  0.24935577  0.99763816  0.35305198    -0.79900
O162        O  0.36377083  0.99744867  0.40887335    -0.73500
Al163      Al  0.27598768  0.04803601  0.37169542     1.90100
O164        O  0.31827641  0.45800934  0.35921465    -0.72500
O165        O  0.41827534  0.01612888  0.35366346    -0.72400
O166        O  0.36549310  0.48112438  0.30217504    -0.78000
O167        O  0.40373213  0.08399732  0.35197386    -0.76200
O168        O  0.32863312  0.03964383  0.34957966    -1.12400
O169        O  0.32695299  0.12679892  0.34614059    -0.71600
C170        C  0.30551578  0.13121674  0.37622548     0.99200
C171        C  0.27669013  0.46400567  0.35341014     0.95600
Al172      Al  0.35902035  0.99139720  0.35546282     1.55600
O173        O  0.24817183  0.07551694  0.32793916    -0.76200
C174        C  0.43094742  0.05383306  0.35791635     0.99700
C175        C  0.33261282  0.00696290  0.43125036     0.94600
O176        O  0.29538843  0.02239216  0.41901806    -0.81500
C177        C  0.22995171  0.09725895  0.26500740    -0.15600
C178        C  0.24450143  0.10925751  0.23087632    -0.30800
H179        H  0.19459084  0.10002794  0.27174445     0.13400
H180        H  0.27988889  0.10649853  0.22422898     0.14000
C181        C  0.29651084  0.28623912  0.14018579    -0.15600
C182        C  0.25590580  0.28494550  0.15580423    -0.30800
H183        H  0.31005857  0.25839887  0.12627970     0.13400
H184        H  0.24070603  0.31389308  0.16637806     0.14000
C185        C  0.18793710  0.04450235  0.10995566    -0.15600
C186        C  0.23100358  0.04117512  0.09903659    -0.30800
H187        H  0.17121950  0.01704095  0.12060006     0.13400
H188        H  0.24855492  0.06962499  0.09182917     0.14000
C189        C  0.37842056  0.49016234  0.23622224    -0.15600
C190        C  0.34711333  0.46336427  0.22304404    -0.30800
H191        H  0.40001285  0.50574334  0.21642994     0.13400
H192        H  0.32337136  0.45043846  0.24264062     0.14000
C193        C  0.34857266  0.50064702  0.47214131    -0.15600
C194        C  0.36932526  0.46183479  0.98614227    -0.30800
H195        H  0.32351702  0.51454864  0.49053567     0.13400
H196        H  0.39226076  0.44594520  0.96708504     0.14000
C197        C  0.23186427  0.36158546  0.02003442    -0.15600
C198        C  0.25490183  0.35615463  0.47900840    -0.30800
H199        H  0.19691084  0.36058442  0.02808621     0.13400
H200        H  0.29051372  0.35594430  0.47284919     0.14000
C201        C  0.12173046  0.25612405  0.51179773    -0.15600
C202        C  0.14745289  0.22271217  0.02726319    -0.30800
H203        H  0.09980378  0.27316140  0.53091798     0.13400
H204        H  0.17303792  0.21085448  0.00828377     0.14000
C205        C  0.15002747  0.25131489  0.27631319    -0.15600
C206        C  0.11737644  0.22689627  0.26198068    -0.30800
H207        H  0.17536214  0.26331921  0.25768163     0.13400
H208        H  0.09377665  0.21228546  0.28069632     0.14000
C209        C  0.24793346  0.42680503  0.34923694    -0.15600
C210        C  0.20384935  0.42668115  0.35732179    -0.30800
H211        H  0.26548743  0.39695356  0.34491114     0.13400
H212        H  0.18687412  0.45578597  0.36528333     0.14000
C213        C  0.24878703  0.17811966  0.40198562    -0.15600
C214        C  0.28967777  0.17362729  0.38711366    -0.30800
H215        H  0.23120616  0.15031385  0.41090941     0.13400
H216        H  0.30557380  0.20061852  0.37467168     0.14000
C217        C  0.00392871  0.18285516  0.12512297    -0.15600
C218        C  0.97724380  0.15026893  0.11805165    -0.30800
H219        H  0.99053173  0.21465285  0.12132271     0.13400
H220        H  0.98963222  0.11822077  0.12209315     0.14000
C221        C  0.50909117  0.03232128  0.37304528    -0.15600
C222        C  0.47816785  0.06315931  0.36867533    -0.30800
H223        H  0.49899269  0.99992235  0.36911162     0.13400
H224        H  0.48765930  0.09570129  0.37263442     0.14000
C225        C  0.73519039  0.12490086  0.00273490    -0.15600
C226        C  0.74698529  0.11771353  0.47062039    -0.30800
H227        H  0.69901797  0.12733057  0.00590705     0.13400
H228        H  0.78136980  0.12360190  0.46271832     0.14000
C229        C  0.51062980  0.43096991  0.12579761    -0.15600
C230        C  0.48471136  0.39759337  0.11885406    -0.30800
H231        H  0.49586151  0.46236864  0.12316247     0.13400
H232        H  0.49841547  0.36586838  0.12181081     0.14000
C233        C  0.69666736  0.29902442  0.10362517    -0.15600
C234        C  0.73927288  0.29434070  0.09205296    -0.30800
H235        H  0.67873623  0.27178659  0.11328866     0.13400
H236        H  0.75821056  0.32227602  0.08583152     0.14000
C237        C  0.75605228  0.03548256  0.15291098    -0.15600
C238        C  0.79264597  0.04005506  0.13210588    -0.30800
H239        H  0.74147033  0.06291034  0.16676931     0.13400
H240        H  0.80545859  0.01342430  0.11596737     0.14000
C241        C  0.65444659  0.47798986  0.02693903    -0.15600
C242        C  0.62942601  0.49729642  0.51105370    -0.30800
H243        H  0.67956201  0.46465971  0.00824478     0.13400
H244        H  0.60436711  0.51315364  0.52814657     0.14000
C245        C  0.62945251  0.47139790  0.26246049    -0.15600
C246        C  0.66601753  0.49020874  0.27721995    -0.30800
H247        H  0.60451032  0.45842788  0.28089664     0.13400
H248        H  0.67314062  0.01890475  0.24855366     0.14000
C249        C  0.98211599  0.28186584  0.36798592    -0.15600
C250        C  0.00801224  0.31556644  0.37408660    -0.30800
H251        H  0.99641200  0.25052794  0.37239614     0.13400
H252        H  0.99449628  0.34711250  0.36935514     0.14000
C253        C  0.74146147  0.35649487  0.26370049    -0.15600
C254        C  0.75562341  0.36548752  0.22878525    -0.30800
H255        H  0.70653470  0.36177521  0.27102283     0.13400
H256        H  0.79067121  0.36079467  0.22162583     0.14000
C257        C  0.86721056  0.23664845  0.23150837    -0.15600
C258        C  0.83424557  0.21326929  0.21605113    -0.30800
H259        H  0.89167284  0.25090622  0.21339531     0.13400
H260        H  0.80813595  0.20144788  0.23400589     0.14000
C261        C  0.83679571  0.24452985  0.46729101    -0.15600
C262        C  0.85910116  0.21327917  0.98080819    -0.30800
H263        H  0.81123268  0.25697598  0.48601825     0.13400
H264        H  0.88290972  0.20041251  0.96077037     0.14000
C265        C  0.81033361  0.42204159  0.38740111    -0.15600
C266        C  0.77389141  0.42809727  0.40865469    -0.30800
H267        H  0.82225665  0.44778834  0.37037488     0.13400
H268        H  0.76007805  0.40144420  0.42333358     0.14000
C269        C  0.72296959  0.18506246  0.33981456    -0.15600
C270        C  0.68228736  0.18379782  0.35598142    -0.30800
H271        H  0.73646506  0.15662325  0.32687172     0.13400
H272        H  0.67016771  0.21070271  0.37204662     0.14000
O273        O  0.79663935  0.34161096  0.90086604    -0.81000
C274        C  0.85858813  0.24837568  0.77548748     0.98400
O275        O  0.87639300  0.28089880  0.78911125    -0.68500
O276        O  0.80435714  0.32952026  0.79118762    -0.73700
Al277      Al  0.85107443  0.31884203  0.82620974     1.49000
C278        C  0.76443547  0.33987178  0.79891241     0.93600
O279        O  0.73076591  0.25894910  0.84965293    -0.79900
O280        O  0.83609950  0.22373871  0.90324874    -0.73500
Al281      Al  0.76795103  0.29833924  0.87339550     1.90100
O282        O  0.77425817  0.20358746  0.84363196    -0.72500
O283        O  0.89885740  0.24046615  0.85576171    -0.72400
O284        O  0.83550466  0.22554352  0.79626844    -0.78000
O285        O  0.90088743  0.30980856  0.86000613    -0.76200
O286        O  0.81766887  0.28135389  0.85024413    -1.12400
O287        O  0.83311173  0.36826239  0.85449998    -0.71600
C288        C  0.81076805  0.37324299  0.88410314     0.99200
C289        C  0.73593049  0.22143213  0.83984616     0.95600
Al290      Al  0.83478265  0.22749111  0.84997076     1.55600
O291        O  0.74888493  0.33472626  0.83184547    -0.76200
C292        C  0.91999538  0.27408010  0.86372295     0.99700
C293        C  0.81115433  0.24028573  0.92766200     0.94600
O294        O  0.77908339  0.26495742  0.91805053    -0.81500
O295        O  0.70194096  0.44904088  0.58179541    -0.81000
C296        C  0.62271030  0.46542132  0.72097555     0.98400
O297        O  0.64092691  0.48968598  0.69787397    -0.70100
O298        O  0.69208078  0.51384737  0.64407619    -0.73700
Al299      Al  0.63877105  0.48315293  0.64439115     1.49000
C300        C  0.73267874  0.50503468  0.65049724     0.93600
O301        O  0.73862732  0.38967024  0.67176706    -0.79900
O302        O  0.65419652  0.34451646  0.64525859    -0.73500
Al303      Al  0.71640749  0.42039302  0.62837777     1.90100
O304        O  0.68019455  0.38505884  0.70887769    -0.72500
O305        O  0.58144214  0.39724587  0.63976108    -0.72400
O306        O  0.60685841  0.43082540  0.70980967    -0.78000
O307        O  0.57822505  0.46612750  0.64368162    -0.76200
O308        O  0.66306134  0.43179234  0.64834590    -1.12400
O309        O  0.63595456  0.48021635  0.59058917    -0.71600
C310        C  0.66675905  0.46765371  0.56891681     0.99200
C311        C  0.72174277  0.38108825  0.70338656     0.95600
Al312      Al  0.63303412  0.39263220  0.67338300     1.55600
O313        O  0.74638561  0.46752239  0.65018342    -0.76200
C314        C  0.55990169  0.43174524  0.63592307     0.99700
C315        C  0.68030612  0.33984523  0.61790405     0.94600
O316        O  0.69741823  0.37134666  0.60300148    -0.81500
O317        O  0.70199622  0.12627957  0.85881161    -0.81000
C318        C  0.63336316  0.02097248  0.96562967     0.98400
O319        O  0.62538840  0.05884027  0.95674122    -0.70100
O320        O  0.68378290  0.11351320  0.93542049    -0.73700
Al321      Al  0.63101431  0.09090068  0.91119133     1.49000
C322        C  0.72467410  0.10080403  0.93685695     0.93600
O323        O  0.74422230  0.01617567  0.85885024    -0.79900
O324        O  0.65397814  0.99593198  0.83207913    -0.73500
Al325      Al  0.71288434  0.06778964  0.86352424     1.90100
O326        O  0.68187463  0.45525016  0.89270924    -0.72500
O327        O  0.58686948  0.00731861  0.87825710    -0.72400
O328        O  0.63394291  0.48579171  0.94760663    -0.78000
O329        O  0.57352415  0.07345216  0.89151821    -0.76200
O330        O  0.66369305  0.05196756  0.88747439    -1.12400
O331        O  0.63081938  0.13015553  0.86941324    -0.71600
C332        C  0.66535951  0.14540691  0.85516340     0.99200
C333        C  0.72318507  0.45898796  0.89985252     0.95600
Al334      Al  0.64942573  0.99805948  0.88696540     1.55600
O335        O  0.74176037  0.07803588  0.91094316    -0.76200
C336        C  0.55992085  0.03807311  0.88041643     0.99700
C337        C  0.66348170  0.02320819  0.80699211     0.94600
O338        O  0.68363144  0.05714344  0.81566173    -0.81500
O339        O  0.79485545  0.19167960  0.66196176    -0.81000
C340        C  0.87219770  0.20927128  0.52206342     0.98400
O341        O  0.85719584  0.23369661  0.54717046    -0.70100
O342        O  0.80759676  0.25864882  0.60248705    -0.73700
Al343      Al  0.85940563  0.22306515  0.60037454     1.49000
C344        C  0.76609274  0.25385716  0.59706567     0.93600
O345        O  0.75233293  0.13993579  0.57039340    -0.79900
O346        O  0.83254535  0.08790781  0.58910199    -0.73500
Al347      Al  0.77809757  0.16672776  0.61457946     1.90100
O348        O  0.80741800  0.13696929  0.52960110    -0.72500
O349        O  0.90774852  0.12999650  0.59676117    -0.72400
O350        O  0.88569391  0.17275716  0.53080744    -0.78000
O351        O  0.91878902  0.19799281  0.59988328    -0.76200
O352        O  0.83095775  0.17500557  0.59350834    -1.12400
O353        O  0.86235500  0.21736949  0.65438521    -0.71600
C354        C  0.83058580  0.20721098  0.67557166     0.99200
C355        C  0.76636633  0.13422479  0.53706230     0.95600
Al356      Al  0.85621216  0.13524590  0.56427936     1.55600
O357        O  0.74996588  0.21760537  0.59611762    -0.76200
C358        C  0.93317943  0.16038978  0.60377886     0.99700
C359        C  0.81184399  0.08357345  0.61939624     0.94600
O360        O  0.79702734  0.11517599  0.63689477    -0.81500
O361        O  0.18232850  0.34836406  0.85518559    -0.81000
C362        C  0.10972389  0.25675070  0.97263254     0.98400
O363        O  0.09449832  0.29269375  0.96322282    -0.70100
O364        O  0.17024181  0.33338807  0.96283657    -0.73700
Al365      Al  0.12116843  0.33039183  0.92771531     1.49000
C366        C  0.21138069  0.33605192  0.95545615     0.93600
O367        O  0.22932622  0.24880070  0.90051094    -0.79900
O368        O  0.11692509  0.24592122  0.84074997    -0.73500
Al369      Al  0.20097129  0.29808634  0.87955035     1.90100
O370        O  0.17337679  0.20635242  0.89203331    -0.72500
O371        O  0.06026436  0.26283739  0.89599918    -0.72400
O372        O  0.12463325  0.23180668  0.94785874    -0.78000
O373        O  0.06820050  0.33120222  0.89520526    -0.76200
O374        O  0.14792342  0.28999699  0.90030099    -1.12400
O375        O  0.14403860  0.37769208  0.90043170    -0.71600
C376        C  0.16858929  0.38085321  0.87192797     0.99200
C377        C  0.21439270  0.21219178  0.89883095     0.95600
Al378      Al  0.12087448  0.24083481  0.89467163     1.55600
O379        O  0.22574912  0.32725347  0.92278819    -0.76200
C380        C  0.04377027  0.29931008  0.89057624     0.99700
C381        C  0.14885906  0.25523306  0.81936120     0.94600
O382        O  0.18491532  0.27064464  0.83272331    -0.81500
O383        O  0.29872398  0.44237812  0.66660515    -0.81000
C384        C  0.37735751  0.45951812  0.52670475     0.98400
O385        O  0.36165970  0.48366177  0.55171316    -0.70100
O386        O  0.31168456  0.50854506  0.60695616    -0.73700
Al387      Al  0.36356286  0.47286150  0.60480124     1.49000
C388        C  0.27027041  0.50356615  0.60101617     0.93600
O389        O  0.25670078  0.38956025  0.57555635    -0.79900
O390        O  0.33596499  0.33744121  0.59463031    -0.73500
Al391      Al  0.28210079  0.41683048  0.61933956     1.90100
O392        O  0.31209517  0.38629611  0.53502714    -0.72500
O393        O  0.41183719  0.37984699  0.60200975    -0.72400
O394        O  0.38975975  0.42249855  0.53530455    -0.78000
O395        O  0.42293747  0.44785103  0.60424127    -0.76200
O396        O  0.33505969  0.42482745  0.59822710    -1.12400
O397        O  0.36662937  0.46685505  0.65836593    -0.71600
C398        C  0.33500921  0.45721139  0.67982140     0.99200
C399        C  0.27120476  0.38287124  0.54256996     0.95600
Al400      Al  0.36039269  0.38486406  0.56945932     1.55600
O401        O  0.25430058  0.46729526  0.60008841    -0.76200
C402        C  0.43737510  0.41029778  0.60838212     0.99700
C403        C  0.31386443  0.33339300  0.62434370     0.94600
O404        O  0.30051884  0.36535591  0.64215996    -0.81500
O405        O  0.19374903  0.19827131  0.57795137    -0.81000
C406        C  0.11728812  0.21310132  0.72039492     0.98400
O407        O  0.13627344  0.23748437  0.69791834    -0.70100
O408        O  0.18782700  0.26278410  0.64510068    -0.73700
Al409      Al  0.13409235  0.23280271  0.64414469     1.49000
C410        C  0.22873401  0.25342660  0.64821783     0.93600
O411        O  0.23347312  0.13817400  0.66791805    -0.79900
O412        O  0.14931686  0.09318409  0.64340465    -0.73500
Al413      Al  0.21014888  0.16920863  0.62447675     1.90100
O414        O  0.17605476  0.13329666  0.70637271    -0.72500
O415        O  0.07647602  0.14664928  0.63779450    -0.72400
O416        O  0.10170617  0.17876839  0.70837955    -0.78000
O417        O  0.07344302  0.21563036  0.64251590    -0.76200
O418        O  0.15788925  0.18102026  0.64624686    -1.12400
O419        O  0.13081469  0.23304076  0.59020165    -0.71600
C420        C  0.15950532  0.21980111  0.56691245     0.99200
C421        C  0.21738851  0.12866083  0.69980423     0.95600
Al422      Al  0.12817456  0.14142716  0.67130644     1.55600
O423        O  0.24196506  0.21597942  0.64490008    -0.76200
C424        C  0.05516652  0.18134234  0.63402116     0.99700
C425        C  0.17526389  0.08849041  0.61601074     0.94600
O426        O  0.18994406  0.12017438  0.59962508    -0.81500
O427        O  0.28901272  0.09757147  0.89358546    -0.81000
C428        C  0.37089773  0.00542420  0.77765672     0.98400
O429        O  0.38283497  0.04204440  0.78699382    -0.70100
O430        O  0.30480752  0.08060264  0.78711801    -0.73700
Al431      Al  0.35296935  0.07942326  0.82225038     1.49000
C432        C  0.26337797  0.08278800  0.79352981     0.93600
O433        O  0.24958114  0.99523067  0.85034853    -0.79900
O434        O  0.36206466  0.99618319  0.90941372    -0.73500
Al435      Al  0.27465654  0.04601132  0.87009539     1.90100
O436        O  0.30048473  0.44929166  0.85500499    -0.72500
O437        O  0.41882375  0.01481269  0.85505605    -0.72400
O438        O  0.35175790  0.47333958  0.80096907    -0.78000
O439        O  0.40450402  0.08259131  0.85526013    -0.76200
O440        O  0.32856328  0.03883469  0.84969898    -1.12400
O441        O  0.32726884  0.12636499  0.84886761    -0.71600
C442        C  0.30277669  0.12980736  0.87736566     0.99200
C443        C  0.25945832  0.45844390  0.85121024     0.95600
Al444      Al  0.35920383  0.99058591  0.85573864     1.55600
O445        O  0.24827412  0.07356416  0.82578450    -0.76200
C446        C  0.43178466  0.05218916  0.86032905     0.99700
C447        C  0.32971833  0.00497861  0.93090663     0.94600
O448        O  0.29277170  0.02016992  0.91770980    -0.81500
C449        C  0.23233931  0.09780188  0.76313609    -0.15600
C450        C  0.24764200  0.11146499  0.72973184    -0.30800
H451        H  0.19661431  0.09903154  0.76877544     0.13400
H452        H  0.28337952  0.11017196  0.72413680     0.14000
C453        C  0.29798682  0.29128897  0.63476444    -0.15600
C454        C  0.26005103  0.28813879  0.65436144    -0.30800
H455        H  0.31030242  0.26433161  0.61882602     0.13400
H456        H  0.24591108  0.31613963  0.66761472     0.14000
C457        C  0.19456843  0.04610945  0.60759269    -0.15600
C458        C  0.23818208  0.04283947  0.59807743    -0.30800
H459        H  0.17728027  0.01848428  0.61718178     0.13400
H460        H  0.25604056  0.07144856  0.59195131     0.14000
C461        C  0.37184801  0.48635503  0.73736102    -0.15600
C462        C  0.33929594  0.46339617  0.72111309    -0.30800
H463        H  0.39657062  0.50134510  0.71998431     0.13400
H464        H  0.31289937  0.45103694  0.73847451     0.14000
C465        C  0.33598154  0.48680521  0.97208423    -0.15600
C466        C  0.37934170  0.47330575  0.48678576    -0.30800
H467        H  0.31141573  0.50036108  0.99114800     0.13400
H468        H  0.40216703  0.45668716  0.46810333     0.14000
C469        C  0.24003710  0.36948593  0.51270322    -0.15600
C470        C  0.24383390  0.35004207  0.98484903    -0.30800
H471        H  0.20445639  0.36929484  0.51899163     0.13400
H472        H  0.27890500  0.35098051  0.97703643     0.14000
C473        C  0.11219261  0.24525011  0.01306903    -0.15600
C474        C  0.15342561  0.22911495  0.52587514    -0.30800
H475        H  0.08796445  0.25951584  0.03199670     0.13400
H476        H  0.17698631  0.21427620  0.50666074     0.14000
C477        C  0.14543102  0.24828848  0.77794968    -0.15600
C478        C  0.11463465  0.22358438  0.76118061    -0.30800
H479        H  0.17135635  0.26189374  0.76085971     0.13400
H480        H  0.09044395  0.20746433  0.77825072     0.14000
C481        C  0.22799788  0.42340787  0.84598735    -0.15600
C482        C  0.18735811  0.42223540  0.86205457    -0.30800
H483        H  0.24290848  0.39433107  0.83544780     0.13400
H484        H  0.17379198  0.45027759  0.87559339     0.14000
C485        C  0.24390933  0.17477605  0.90340853    -0.15600
C486        C  0.28493955  0.17174910  0.88829660    -0.30800
H487        H  0.22747291  0.14626881  0.91212883     0.13400
H488        H  0.29985368  0.19944024  0.87622807     0.14000
C489        C  0.00828974  0.18451080  0.62030980    -0.15600
C490        C  0.98048510  0.15223746  0.61574286    -0.30800
H491        H  0.99558320  0.21628246  0.61503967     0.13400
H492        H  0.99229326  0.12021812  0.62101795     0.14000
C493        C  0.51194405  0.03099160  0.86999182    -0.15600
C494        C  0.47933380  0.06084913  0.87134076    -0.30800
H495        H  0.50317978  0.99946856  0.86091977     0.13400
H496        H  0.48784647  0.09267386  0.87964036     0.14000
C497        C  0.73426434  0.12287849  0.50673134    -0.15600
C498        C  0.75286222  0.11254137  0.96955059    -0.30800
H499        H  0.69977699  0.11741064  0.51453267     0.13400
H500        H  0.78898357  0.10851211  0.96687364     0.14000
C501        C  0.51277263  0.43461319  0.62302222    -0.15600
C502        C  0.48487024  0.40228917  0.61970741    -0.30800
H503        H  0.49996457  0.46627508  0.61735085     0.13400
H504        H  0.49677766  0.37037596  0.62538617     0.14000
C505        C  0.69641245  0.29702985  0.60719094    -0.15600
C506        C  0.73774410  0.29227902  0.59270691    -0.30800
H507        H  0.67987287  0.27000586  0.61887956     0.13400
H508        H  0.75546253  0.32012773  0.58410072     0.14000
C509        C  0.76351353  0.03618741  0.65234617    -0.15600
C510        C  0.79968695  0.04102065  0.63112068    -0.30800
H511        H  0.74885316  0.06340768  0.66645947     0.13400
H512        H  0.81210396  0.01467239  0.61440324     0.14000
C513        C  0.66257071  0.47415250  0.52764552    -0.15600
C514        C  0.62082079  0.50211638  0.01216480    -0.30800
H515        H  0.68890340  0.46051867  0.51034732     0.13400
H516        H  0.59733531  0.51813934  0.03065111     0.14000
C517        C  0.62183234  0.47612579  0.76159644    -0.15600
C518        C  0.65603780  0.49706426  0.77781711    -0.30800
H519        H  0.59620777  0.46255938  0.77898197     0.13400
H520        H  0.66674841  0.03533594  0.74561432     0.14000
C521        C  0.96803002  0.27082913  0.87610529    -0.15600
C522        C  0.99531808  0.30427198  0.87959616    -0.30800
H523        H  0.98176243  0.23941529  0.88121848     0.13400
H524        H  0.98197027  0.33574043  0.87415669     0.14000
C525        C  0.73546912  0.35827850  0.76899529    -0.15600
C526        C  0.75114417  0.36535461  0.73419070    -0.30800
H527        H  0.70059881  0.36534387  0.77545038     0.13400
H528        H  0.78616275  0.35885526  0.72791385     0.14000
C529        C  0.86316979  0.23835402  0.73473676    -0.15600
C530        C  0.83347839  0.21326035  0.71705640    -0.30800
H531        H  0.88776518  0.25494711  0.71846764     0.13400
H532        H  0.80738742  0.19886630  0.73344391     0.14000
C533        C  0.82066512  0.23228386  0.96833197    -0.15600
C534        C  0.87138260  0.22159485  0.48187078    -0.30800
H535        H  0.79628098  0.24354596  0.98866297     0.13400
H536        H  0.89556031  0.20682866  0.46319706     0.14000
C537        C  0.79355952  0.41580935  0.89409005    -0.15600
C538        C  0.75070578  0.42017998  0.90533079    -0.30800
H539        H  0.81093922  0.44299880  0.88360750     0.13400
H540        H  0.73219341  0.39214948  0.91208266     0.14000
C541        C  0.69804551  0.20340162  0.81690636    -0.15600
C542        C  0.66247489  0.18229019  0.83001477    -0.30800
H543        H  0.69028133  0.22220651  0.79174763     0.13400
H544        H  0.63076935  0.18579454  0.81419277     0.14000
O545        O  0.78791742  0.84479027  0.39602697    -0.81000
C546        C  0.86838827  0.76623743  0.27329463     0.98400
O547        O  0.87968626  0.80263346  0.28406124    -0.68500
O548        O  0.80039724  0.83710833  0.28766068    -0.73700
Al549      Al  0.84918190  0.83636948  0.32187670     1.49000
C550        C  0.75915505  0.83711946  0.29454977     0.93600
O551        O  0.75196248  0.74598499  0.34543449    -0.79900
O552        O  0.86577627  0.74821041  0.40457089    -0.73500
Al553      Al  0.77461430  0.79556409  0.36889839     1.90100
O554        O  0.81259072  0.70701408  0.35248921    -0.72500
O555        O  0.91864580  0.77301189  0.34986762    -0.72400
O556        O  0.85734708  0.73920941  0.29728599    -0.78000
O557        O  0.90160917  0.84014926  0.35392893    -0.76200
O558        O  0.82804537  0.79269228  0.34751491    -1.12400
O559        O  0.82125927  0.87987721  0.35197695    -0.71600
C560        C  0.79868473  0.87907976  0.38186031     0.99200
C561        C  0.77076156  0.71033254  0.34639470     0.95600
Al562      Al  0.86113119  0.74568811  0.35065975     1.55600
O563        O  0.74540444  0.82607158  0.32684987    -0.76200
C564        C  0.93006977  0.81043317  0.35730599     0.99700
C565        C  0.83334581  0.75333701  0.42680477     0.94600
O566        O  0.79497625  0.76622837  0.41451614    -0.81500
O567        O  0.69317626  0.94620665  0.07544414    -0.81000
C568        C  0.61548090  0.96755380  0.21494741     0.98400
O569        O  0.63280756  0.99067989  0.19056211    -0.70100
O570        O  0.68502064  0.01135129  0.13743605    -0.73700
Al571      Al  0.63071084  0.98254744  0.13751515     1.49000
C572        C  0.72503014  0.00118985  0.14504552     0.93600
O573        O  0.72753809  0.88565506  0.16680806    -0.79900
O574        O  0.64303230  0.84364407  0.14299617    -0.73500
Al575      Al  0.70607723  0.91707033  0.12287325     1.90100
O576        O  0.67054911  0.88543451  0.20565713    -0.72500
O577        O  0.57148026  0.89738898  0.13649671    -0.72400
O578        O  0.59819878  0.93311487  0.20517284    -0.78000
O579        O  0.56984108  0.96650012  0.13658026    -0.76200
O580        O  0.65353417  0.93066821  0.14297784    -1.12400
O581        O  0.62838060  0.97943713  0.08351888    -0.71600
C582        C  0.65949666  0.96699735  0.06213206     0.99200
C583        C  0.71152243  0.87869332  0.19922268     0.95600
Al584      Al  0.62309966  0.89306529  0.16983648     1.55600
O585        O  0.73766903  0.96331652  0.14466764    -0.76200
C586        C  0.55077298  0.93201148  0.13080931     0.99700
C587        C  0.66763652  0.83777435  0.11480614     0.94600
O588        O  0.68390006  0.86866285  0.09812267    -0.81500
O589        O  0.70129962  0.59381390  0.34848198    -0.81000
C590        C  0.63025860  0.50615032  0.47009141     0.98400
O591        O  0.61275913  0.54007097  0.45748880    -0.70100
O592        O  0.68399552  0.58615365  0.45492539    -0.73700
Al593      Al  0.63740271  0.57644140  0.41952406     1.49000
C594        C  0.72537462  0.58979287  0.44921514     0.93600
O595        O  0.75397108  0.50033308  0.39927835    -0.79900
O596        O  0.64332887  0.48523065  0.34098965    -0.73500
Al597      Al  0.72198726  0.54616069  0.37570463     1.90100
O598        O  0.70217687  0.97054497  0.38228376    -0.72500
O599        O  0.58566928  0.50130515  0.39358288    -0.72400
O600        O  0.65199261  0.98810412  0.44043163    -0.78000
O601        O  0.58611134  0.56973827  0.38573760    -0.76200
O602        O  0.66918798  0.53597694  0.39627769    -1.12400
O603        O  0.65724130  0.62311216  0.38970028    -0.71600
C604        C  0.68411912  0.62624444  0.36278658     0.99200
C605        C  0.74137925  0.98461257  0.38240795     0.95600
Al606      Al  0.64701353  0.48452963  0.39449038     1.55600
O607        O  0.74274584  0.57906485  0.41806119    -0.76200
C608        C  0.56597779  0.53500231  0.38366744     0.99700
C609        C  0.67284417  0.49693609  0.31829822     0.94600
O610        O  0.70820895  0.51511984  0.32999726    -0.81500
O611        O  0.79240119  0.70063154  0.16739711    -0.81000
C612        C  0.86651940  0.71208798  0.02466268     0.98400
O613        O  0.84709141  0.73685531  0.04718920    -0.70100
O614        O  0.79573127  0.76335871  0.10031486    -0.73700
Al615      Al  0.85052111  0.73283900  0.10074461     1.49000
C616        C  0.75511096  0.75437786  0.09648813     0.93600
O617        O  0.75382038  0.63849632  0.07904498    -0.79900
O618        O  0.84001555  0.59398307  0.10310607    -0.73500
Al619      Al  0.77659483  0.67050381  0.12156987     1.90100
O620        O  0.81083918  0.63314313  0.04003084    -0.72500
O621        O  0.91069641  0.64631957  0.10709188    -0.72400
O622        O  0.88341036  0.67772981  0.03657151    -0.78000
O623        O  0.91183874  0.71513571  0.10157969    -0.76200
O624        O  0.82825427  0.68137465  0.09925405    -1.12400
O625        O  0.85493705  0.73336568  0.15439385    -0.71600
C626        C  0.82672154  0.72112799  0.17797091     0.99200
C627        C  0.76978407  0.62895707  0.04698945     0.95600
Al628      Al  0.85884306  0.64120590  0.07428516     1.55600
O629        O  0.74295043  0.71708292  0.10014931    -0.76200
C630        C  0.93112042  0.68074559  0.11030040     0.99700
C631        C  0.81560746  0.58998693  0.13141390     0.94600
O632        O  0.79916263  0.62200184  0.14715447    -0.81500
O633        O  0.18899830  0.84815108  0.35076465    -0.81000
C634        C  0.12280249  0.75637121  0.47153600     0.98400
O635        O  0.10463048  0.79062012  0.46043940    -0.70100
O636        O  0.17724870  0.83533304  0.45761827    -0.73700
Al637      Al  0.12858095  0.82835649  0.42321528     1.49000
C638        C  0.21839120  0.83883589  0.45058684     0.93600
O639        O  0.24226444  0.75120225  0.39551469    -0.79900
O640        O  0.12924221  0.73926375  0.34063656    -0.73500
Al641      Al  0.21007300  0.79874594  0.37510230     1.90100
O642        O  0.18878511  0.70572529  0.39246321    -0.72500
O643        O  0.07375907  0.75573565  0.39546936    -0.72400
O644        O  0.14020617  0.73153537  0.44787480    -0.78000
O645        O  0.07534389  0.82451687  0.39064580    -0.76200
O646        O  0.15819801  0.78842989  0.39712227    -1.12400
O647        O  0.14852561  0.87631657  0.39504473    -0.71600
C648        C  0.17450757  0.88021551  0.36759425     0.99200
C649        C  0.22947127  0.71396980  0.39707661     0.95600
Al650      Al  0.13488279  0.73740039  0.39436897     1.55600
O651        O  0.23386382  0.82913553  0.41837268    -0.76200
C652        C  0.05442613  0.79024359  0.38722580     0.99700
C653        C  0.15806950  0.75106069  0.31730071     0.94600
O654        O  0.19322174  0.77011896  0.32842816    -0.81500
O655        O  0.29184907  0.94253094  0.17042529    -0.81000
C656        C  0.36414118  0.95723935  0.02737179     0.98400
O657        O  0.34873002  0.98184242  0.05213429    -0.70100
O658        O  0.30146422  0.00824190  0.10853727    -0.73700
Al659      Al  0.35312512  0.97248756  0.10542773     1.49000
C660        C  0.25988597  0.00316760  0.10408727     0.93600
O661        O  0.24519193  0.88874023  0.07999185    -0.79900
O662        O  0.32580815  0.83661473  0.09858228    -0.73500
Al663      Al  0.27241726  0.91648161  0.12343488     1.90100
O664        O  0.30019672  0.88426835  0.03913252    -0.72500
O665        O  0.40154653  0.87963117  0.10386068    -0.72400
O666        O  0.37733764  0.92061276  0.03662335    -0.78000
O667        O  0.41260428  0.94768245  0.10350514    -0.76200
O668        O  0.32461469  0.92412183  0.10085997    -1.12400
O669        O  0.35865058  0.96802195  0.15894769    -0.71600
C670        C  0.32854727  0.95847100  0.18192999     0.99200
C671        C  0.25944077  0.88074624  0.04703411     0.95600
Al672      Al  0.34925982  0.88367569  0.07231838     1.55600
O673        O  0.24400192  0.96689701  0.10458855    -0.76200
C674        C  0.42726071  0.91029815  0.10839037     0.99700
C675        C  0.30345304  0.83273866  0.12814448     0.94600
O676        O  0.29061631  0.86477457  0.14611671    -0.81500
O677        O  0.18858538  0.68924839  0.07981841    -0.81000
C678        C  0.11670235  0.70469894  0.22203636     0.98400
O679        O  0.12972820  0.72928827  0.19673970    -0.70100
O680        O  0.17519958  0.75490203  0.13984358    -0.73700
Al681      Al  0.12514654  0.71931873  0.14347308     1.49000
C682        C  0.21681617  0.74988922  0.14523044     0.93600
O683        O  0.23593930  0.63535478  0.16969021    -0.79900
O684        O  0.15730434  0.58358935  0.15104396    -0.73500
Al685      Al  0.20810875  0.66315505  0.12657038     1.90100
O686        O  0.18156300  0.63089453  0.21090067    -0.72500
O687        O  0.07998850  0.62682527  0.14594008    -0.72400
O688        O  0.10342536  0.66844967  0.21298389    -0.78000
O689        O  0.06666321  0.69489778  0.14567232    -0.76200
O690        O  0.15547615  0.67092258  0.14868369    -1.12400
O691        O  0.12002675  0.71410009  0.08969259    -0.71600
C692        C  0.15156110  0.70490855  0.06749107     0.99200
C693        C  0.22237962  0.62749804  0.20269248     0.95600
Al694      Al  0.13230786  0.63077897  0.17746948     1.55600
O695        O  0.23418341  0.71357019  0.14591999    -0.76200
C696        C  0.05341588  0.65761707  0.14049930     0.99700
C697        C  0.17994352  0.57967442  0.12152238     0.94600
O698        O  0.19174751  0.61163348  0.10366019    -0.81500
O699        O  0.30629504  0.60137090  0.39388607    -0.81000
C700        C  0.37892227  0.50462580  0.27621807     0.98400
O701        O  0.39121786  0.54152246  0.28403162    -0.70100
O702        O  0.31322777  0.57946088  0.28601862    -0.73700
Al703      Al  0.36286360  0.58033540  0.31896591     1.49000
C704        C  0.27281758  0.58473208  0.29483960     0.93600
O705        O  0.26036634  0.50071028  0.35219402    -0.79900
O706        O  0.37481053  0.49936154  0.40875377    -0.73500
Al707      Al  0.28764311  0.55040882  0.37138991     1.90100
O708        O  0.30805337  0.95585983  0.35902632    -0.72500
O709        O  0.42870975  0.51697112  0.35259509    -0.72400
O710        O  0.35525192  0.98060517  0.30238616    -0.78000
O711        O  0.41539815  0.58502182  0.34971835    -0.76200
O712        O  0.33982831  0.54125050  0.34890504    -1.12400
O713        O  0.33857594  0.62841682  0.34488948    -0.71600
C714        C  0.31775004  0.63299308  0.37535319     0.99200
C715        C  0.26623012  0.96115591  0.35408014     0.95600
Al716      Al  0.36962320  0.49279205  0.35515482     1.55600
O717        O  0.25988705  0.57864691  0.32834495    -0.76200
C718        C  0.44209391  0.55454072  0.35586618     0.99700
C719        C  0.34334843  0.50863171  0.43093878     0.94600
O720        O  0.30634033  0.52411330  0.41843156    -0.81500
C721        C  0.24061517  0.59960959  0.26579712    -0.15600
C722        C  0.25448553  0.61275796  0.23186054    -0.30800
H723        H  0.20522870  0.60074536  0.27273075     0.13400
H724        H  0.28990497  0.61183862  0.22503929     0.14000
C725        C  0.28648390  0.79084247  0.13798264    -0.15600
C726        C  0.24397341  0.78798943  0.14968961    -0.30800
H727        H  0.30386767  0.76302617  0.12740548     0.13400
H728        H  0.22545614  0.81670820  0.15654598     0.14000
C729        C  0.19866836  0.53782468  0.11173751    -0.15600
C730        C  0.24115750  0.53509461  0.09971416    -0.30800
H731        H  0.18273895  0.51008065  0.12269832     0.13400
H732        H  0.25819759  0.56374531  0.09224505     0.14000
C733        C  0.36791801  0.99162103  0.23678361    -0.15600
C734        C  0.33549298  0.96643677  0.22300493    -0.30800
H735        H  0.39021305  0.00702908  0.21745608     0.13400
H736        H  0.31115413  0.95374340  0.24222526     0.14000
C737        C  0.33882399  0.99931888  0.47240137    -0.15600
C738        C  0.36538065  0.97019994  0.98717634    -0.30800
H739        H  0.31340295  0.01198695  0.49113801     0.13400
H740        H  0.38871326  0.95386925  0.96874461     0.14000
C741        C  0.22887232  0.86527788  0.01727291    -0.15600
C742        C  0.24916390  0.85501176  0.48024070    -0.30800
H743        H  0.19302750  0.86508696  0.02238720     0.13400
H744        H  0.28455305  0.85651792  0.47359039     0.14000
C745        C  0.12512186  0.74652999  0.51246659    -0.15600
C746        C  0.14654874  0.71264379  0.02633614    -0.30800
H747        H  0.10081698  0.76158498  0.53085023     0.13400
H748        H  0.17162170  0.69808596  0.00832416     0.14000
C749        C  0.15116773  0.74250409  0.27620263    -0.15600
C750        C  0.11880118  0.71707161  0.26253345    -0.30800
H751        H  0.17483064  0.75585265  0.25677366     0.13400
H752        H  0.09692471  0.70136021  0.28200286     0.14000
C753        C  0.23803275  0.92334887  0.35033774    -0.15600
C754        C  0.19417244  0.92177450  0.35942429    -0.30800
H755        H  0.25618583  0.89405125  0.34496313     0.13400
H756        H  0.17658591  0.95018151  0.36834920     0.14000
C757        C  0.26100664  0.67839306  0.40325601    -0.15600
C758        C  0.30046704  0.67520908  0.38569458    -0.30800
H759        H  0.24654360  0.65025771  0.41497944     0.13400
H760        H  0.31313164  0.70226070  0.37083115     0.14000
C761        C  0.00622558  0.65037619  0.12872350    -0.15600
C762        C  0.97800922  0.68326168  0.12366696    -0.30800
H763        H  0.99489711  0.61853875  0.12374417     0.13400
H764        H  0.99025584  0.71488542  0.12837683     0.14000
C765        C  0.51901780  0.53104399  0.37057667    -0.15600
C766        C  0.48952287  0.56294892  0.36621735    -0.30800
H767        H  0.50762986  0.49908595  0.36618695     0.13400
H768        H  0.50000266  0.59511789  0.37083374     0.14000
C769        C  0.73982715  0.61252833  0.01714481    -0.15600
C770        C  0.75435428  0.60691778  0.47928234    -0.30800
H771        H  0.70423589  0.61094436  0.02303641     0.13400
H772        H  0.78979721  0.60951368  0.47316552     0.14000
C773        C  0.50358263  0.93465462  0.11815913    -0.15600
C774        C  0.47510072  0.90266967  0.11845568    -0.30800
H775        H  0.49113492  0.96583469  0.11015016     0.13400
H776        H  0.48676347  0.87127031  0.12643457     0.14000
C777        C  0.68378426  0.79453419  0.10576044    -0.15600
C778        C  0.72320533  0.78944170  0.08824471    -0.30800
H779        H  0.67043905  0.76854431  0.12163632     0.13400
H780        H  0.73785737  0.81653776  0.07484936     0.14000
C781        C  0.75884406  0.54389240  0.15604736    -0.15600
C782        C  0.80004361  0.54754152  0.14164448    -0.30800
H783        H  0.74161516  0.57205146  0.16614377     0.13400
H784        H  0.81605055  0.52036606  0.12856785     0.14000
C785        C  0.65729759  0.97686685  0.02088151    -0.15600
C786        C  0.63056518  0.99692496  0.50477717    -0.30800
H787        H  0.67957210  0.95925982  0.00241739     0.13400
H788        H  0.60458008  0.01037537  0.52249437     0.14000
C789        C  0.61792538  0.97932656  0.25537804    -0.15600
C790        C  0.65048056  0.00474555  0.26839620    -0.30800
H791        H  0.59635327  0.96355204  0.27504594     0.13400
H792        H  0.69195344  0.50091668  0.25849842     0.14000
C793        C  0.97727875  0.81920998  0.36939916    -0.15600
C794        C  0.00714569  0.78732635  0.37377418    -0.30800
H795        H  0.98717562  0.85128007  0.37526440     0.13400
H796        H  0.99589658  0.75552098  0.36835261     0.14000
C797        C  0.72708325  0.85139502  0.26435982    -0.15600
C798        C  0.74163276  0.86239544  0.22978905    -0.30800
H799        H  0.69159099  0.85363518  0.27069017     0.13400
H800        H  0.77711887  0.85955064  0.22351483     0.14000
C801        C  0.86566429  0.75608333  0.23239881    -0.15600
C802        C  0.83369834  0.73019217  0.21881230    -0.30800
H803        H  0.88676754  0.77286948  0.21306311     0.13400
H804        H  0.81083783  0.71586417  0.23839003     0.14000
C805        C  0.83939577  0.74438632  0.46792253    -0.15600
C806        C  0.86815012  0.72235902  0.98399691    -0.30800
H807        H  0.81315738  0.75565205  0.48656033     0.13400
H808        H  0.89372726  0.70734844  0.96683935     0.14000
C809        C  0.77805398  0.91747596  0.39778241    -0.15600
C810        C  0.77989250  0.95491769  0.38068555    -0.30800
H811        H  0.75273058  0.91294406  0.41908086     0.13400
H812        H  0.80549226  0.96086118  0.36001966     0.14000
C813        C  0.74461771  0.67136344  0.34222998    -0.15600
C814        C  0.70125065  0.66810006  0.35228749    -0.30800
H815        H  0.76417711  0.64281847  0.33705219     0.13400
H816        H  0.68253537  0.69603866  0.36084972     0.14000
O817        O  0.79043322  0.84335146  0.89369730    -0.81000
C818        C  0.87436094  0.76017566  0.77419239     0.98400
O819        O  0.88461678  0.79715316  0.78412328    -0.68500
O820        O  0.80524174  0.83136930  0.78517435    -0.73700
Al821      Al  0.85269191  0.83233409  0.82022501     1.49000
C822        C  0.76402177  0.83374793  0.79184151     0.93600
O823        O  0.75416369  0.74508577  0.84292020    -0.79900
O824        O  0.86525824  0.74762158  0.90561079    -0.73500
Al825      Al  0.77642264  0.79426588  0.86666658     1.90100
O826        O  0.81380162  0.70524167  0.85322885    -0.72500
O827        O  0.92048542  0.76994929  0.85184571    -0.72400
O828        O  0.86162830  0.73430291  0.79857673    -0.78000
O829        O  0.90390351  0.83736619  0.85323928    -0.76200
O830        O  0.83051043  0.78996234  0.84657200    -1.12400
O831        O  0.82365791  0.87684954  0.84853008    -0.71600
C832        C  0.80113334  0.87710912  0.87853891     0.99200
C833        C  0.77238129  0.70923980  0.84543663     0.95600
Al834      Al  0.86296639  0.74297759  0.85183944     1.55600
O835        O  0.74929458  0.82485860  0.82425756    -0.76200
C836        C  0.93209153  0.80763688  0.85775324     0.99700
C837        C  0.83156535  0.75315694  0.92638399     0.94600
O838        O  0.79380148  0.76522399  0.91253832    -0.81500
O839        O  0.70270430  0.94773058  0.57561687    -0.81000
C840        C  0.62545367  0.96874342  0.71442358     0.98400
O841        O  0.64194423  0.99179989  0.68949082    -0.70100
O842        O  0.69318335  0.01163890  0.63483742    -0.73700
Al843      Al  0.63897368  0.98243100  0.63658373     1.49000
C844        C  0.73282402  0.00184705  0.64435157     0.93600
O845        O  0.73666161  0.88594077  0.66566215    -0.79900
O846        O  0.65241440  0.84390121  0.64118653    -0.73500
Al847      Al  0.71528822  0.91804869  0.62259519     1.90100
O848        O  0.67941431  0.88520904  0.70410022    -0.72500
O849        O  0.57971612  0.89777703  0.63611898    -0.72400
O850        O  0.60862418  0.93369910  0.70522121    -0.78000
O851        O  0.57805623  0.96671674  0.63717341    -0.76200
O852        O  0.66233803  0.93090554  0.64241739    -1.12400
O853        O  0.63562566  0.97697971  0.58303536    -0.71600
C854        C  0.66745940  0.96566204  0.56192317     0.99200
C855        C  0.72022361  0.87818075  0.69763057     0.95600
Al856      Al  0.63213536  0.89324813  0.66895342     1.55600
O857        O  0.74559007  0.96406405  0.64558905    -0.76200
C858        C  0.55876408  0.93241981  0.63126238     0.99700
C859        C  0.67865621  0.83870887  0.61379771     0.94600
O860        O  0.69395698  0.87004319  0.59715515    -0.81500
O861        O  0.70117709  0.59512595  0.85250705    -0.81000
C862        C  0.61981291  0.51236783  0.97138178     0.98400
O863        O  0.60685242  0.54866151  0.96068381    -0.70100
O864        O  0.68341837  0.58604041  0.95864950    -0.73700
Al865      Al  0.63557376  0.58340217  0.92365148     1.49000
C866        C  0.72497418  0.58571024  0.95291765     0.93600
O867        O  0.74010109  0.49479843  0.90117871    -0.79900
O868        O  0.62816923  0.49662069  0.84051822    -0.73500
Al869      Al  0.71526062  0.54483551  0.87852885     1.90100
O870        O  0.70896510  0.97647597  0.89702120    -0.72500
O871        O  0.57199668  0.51790015  0.89456276    -0.72400
O872        O  0.64333111  0.99411427  0.94064930    -0.78000
O873        O  0.58369666  0.58540227  0.89072105    -0.76200
O874        O  0.66105673  0.54060822  0.89846616    -1.12400
O875        O  0.66030689  0.62767857  0.89441694    -0.71600
C876        C  0.68581156  0.62858154  0.86645233     0.99200
C877        C  0.74257460  0.98309237  0.87738346     0.95600
Al878      Al  0.63131590  0.49282808  0.89422171     1.55600
O879        O  0.74076532  0.57409036  0.92145186    -0.76200
C880        C  0.55759220  0.55481345  0.88748635     0.99700
C881        C  0.66065026  0.50381435  0.81905642     0.94600
O882        O  0.69795085  0.51691136  0.83217952    -0.81500
O883        O  0.80242021  0.69581925  0.66645386    -0.81000
C884        C  0.87451083  0.70842237  0.52317275     0.98400
O885        O  0.86003023  0.73336185  0.54806585    -0.70100
O886        O  0.81223173  0.76033673  0.60403754    -0.73700
Al887      Al  0.86427656  0.72453328  0.60156511     1.49000
C888        C  0.77054819  0.75514454  0.59984546     0.93600
O889        O  0.75623747  0.64011760  0.57666762    -0.79900
O890        O  0.83646048  0.58890612  0.59526005    -0.73500
Al891      Al  0.78354124  0.66878398  0.61982705     1.90100
O892        O  0.81065947  0.63633676  0.53529798    -0.72500
O893        O  0.91199417  0.63108919  0.60001950    -0.72400
O894        O  0.88824406  0.67205960  0.53267879    -0.78000
O895        O  0.92398684  0.69900480  0.60047630    -0.76200
O896        O  0.83562317  0.67627593  0.59713055    -1.12400
O897        O  0.86937881  0.72105101  0.65539616    -0.71600
C898        C  0.83879649  0.71216495  0.67816034     0.99200
C899        C  0.76997190  0.63278195  0.54339297     0.95600
Al900      Al  0.85988243  0.63554193  0.56853448     1.55600
O901        O  0.75478781  0.71879567  0.60039492    -0.76200
C902        C  0.93794660  0.66133883  0.60561028     0.99700
C903        C  0.81586661  0.58552390  0.62579481     0.94600
O904        O  0.80285024  0.61784563  0.64325849    -0.81500
O905        O  0.19666376  0.84307087  0.85433275    -0.81000
C906        C  0.11827459  0.75149092  0.97052784     0.98400
O907        O  0.10300183  0.78703218  0.95959137    -0.70100
O908        O  0.17538773  0.83157435  0.95903154    -0.73700
Al909      Al  0.12912628  0.82448343  0.92297948     1.49000
C910        C  0.21705659  0.83376002  0.95424367     0.93600
O911        O  0.24323569  0.74457269  0.90177409    -0.79900
O912        O  0.13357037  0.73728378  0.84066933    -0.73500
Al913      Al  0.21400952  0.79303818  0.87966412     1.90100
O914        O  0.18887557  0.70065222  0.89382294    -0.72500
O915        O  0.07502973  0.75253011  0.89298972    -0.72400
O916        O  0.13688666  0.72676791  0.94736762    -0.78000
O917        O  0.07766764  0.82115514  0.88870455    -0.76200
O918        O  0.15996265  0.78406029  0.89861626    -1.12400
O919        O  0.15091270  0.87168688  0.89473911    -0.71600
C920        C  0.17906703  0.87528504  0.86878937     0.99200
C921        C  0.22938312  0.70761374  0.90122198     0.95600
Al922      Al  0.13564249  0.73364063  0.89408652     1.55600
O923        O  0.23500299  0.82276184  0.92348719    -0.76200
C924        C  0.05645936  0.78723231  0.88466771     0.99700
C925        C  0.16470759  0.74840912  0.81929847     0.94600
O926        O  0.20024283  0.76503023  0.83251721    -0.81500
O927        O  0.29805626  0.94361724  0.66864816    -0.81000
C928        C  0.37178549  0.96052949  0.52666032     0.98400
O929        O  0.35703022  0.98470523  0.55202708    -0.70100
O930        O  0.30851918  0.00963913  0.60813474    -0.73700
Al931      Al  0.36058614  0.97413637  0.60508493     1.49000
C932        C  0.26697161  0.00458706  0.60293493     0.93600
O933        O  0.25310665  0.88974184  0.57746787    -0.79900
O934        O  0.33417095  0.83873010  0.59556533    -0.73500
Al935      Al  0.27992343  0.91765640  0.62122473     1.90100
O936        O  0.30734535  0.88647986  0.53592456    -0.72500
O937        O  0.40924461  0.88137190  0.60125330    -0.72400
O938        O  0.38484276  0.92366468  0.53498793    -0.78000
O939        O  0.42020597  0.94935332  0.60350271    -0.76200
O940        O  0.33214542  0.92589705  0.59903612    -1.12400
O941        O  0.36529809  0.96869914  0.65876415    -0.71600
C942        C  0.33443287  0.95934671  0.68107754     0.99200
C943        C  0.26667421  0.88246345  0.54413041     0.95600
Al944      Al  0.35688354  0.88598646  0.56970344     1.55600
O945        O  0.25116240  0.96819025  0.60244923    -0.76200
C946        C  0.43483757  0.91181796  0.60734202     0.99700
C947        C  0.31359709  0.83455088  0.62598084     0.94600
O948        O  0.29951648  0.86631732  0.64371289    -0.81500
O949        O  0.20100930  0.69724950  0.58093301    -0.81000
C950        C  0.12463494  0.71228846  0.72134819     0.98400
O951        O  0.14245958  0.73691372  0.69837070    -0.70100
O952        O  0.19239454  0.76175125  0.64442523    -0.73700
Al953      Al  0.13934320  0.73108239  0.64497688     1.49000
C954        C  0.23294860  0.75278301  0.65057718     0.93600
O955        O  0.23952261  0.63766609  0.67136351    -0.79900
O956        O  0.15499460  0.59224592  0.64522353    -0.73500
Al957      Al  0.21656230  0.66841324  0.62778043     1.90100
O958        O  0.18169283  0.63201809  0.70905384    -0.72500
O959        O  0.08185421  0.64543199  0.63962277    -0.72400
O960        O  0.10788964  0.67821712  0.70987310    -0.78000
O961        O  0.07889398  0.71423932  0.64469345    -0.76200
O962        O  0.16362639  0.67962303  0.64833883    -1.12400
O963        O  0.13562051  0.72883237  0.59126320    -0.71600
C964        C  0.16559471  0.71630883  0.56880811     0.99200
C965        C  0.22328807  0.62825113  0.70314576     0.95600
Al966      Al  0.13384580  0.64023310  0.67338155     1.55600
O967        O  0.24671961  0.71536315  0.64939849    -0.76200
C968        C  0.06055037  0.68018535  0.63591537     0.99700
C969        C  0.18126812  0.58780404  0.61798414     0.94600
O970        O  0.19735903  0.61946775  0.60258857    -0.81500
O971        O  0.29908613  0.59194252  0.89752858    -0.81000
C972        C  0.37004531  0.49744588  0.77781336     0.98400
O973        O  0.38536182  0.53226430  0.78872408    -0.70100
O974        O  0.31113943  0.57809757  0.79056551    -0.73700
Al975      Al  0.35977279  0.57027403  0.82530876     1.49000
C976        C  0.26986975  0.58291543  0.79739866     0.93600
O977        O  0.24628406  0.49608714  0.85278155    -0.79900
O978        O  0.35855971  0.48157380  0.90808204    -0.73500
Al979      Al  0.27817542  0.54310437  0.87295672     1.90100
O980        O  0.30875110  0.95456155  0.85821399    -0.72500
O981        O  0.41557597  0.49686869  0.85501506    -0.72400
O982        O  0.35695067  0.98064020  0.80245577    -0.78000
O983        O  0.41230149  0.56584296  0.85800056    -0.76200
O984        O  0.33045267  0.53112121  0.85121269    -1.12400
O985        O  0.33970541  0.61842382  0.85337410    -0.71600
C986        C  0.31528812  0.62329707  0.88170378     0.99200
C987        C  0.26705266  0.95902332  0.85230905     0.95600
Al988      Al  0.35456215  0.47960284  0.85445676     1.55600
O989        O  0.25437272  0.57398272  0.82959994    -0.76200
C990        C  0.43404634  0.53147901  0.86211564     0.99700
C991        C  0.32945568  0.49466755  0.93102970     0.94600
O992        O  0.29437325  0.51455372  0.91956209    -0.81500
C993        C  0.23900582  0.59969234  0.76746060    -0.15600
C994        C  0.25384768  0.61203882  0.73351080    -0.30800
H995        H  0.20344281  0.60209165  0.77354321     0.13400
H996        H  0.28944730  0.60973508  0.72753006     0.14000
C997        C  0.30043557  0.79210552  0.63745067    -0.15600
C998        C  0.26329000  0.78778383  0.65766470    -0.30800
H999        H  0.31330348  0.76550085  0.62132587     0.13400
H1000       H  0.24831817  0.81531739  0.67105518     0.14000
C1001       C  0.19911290  0.54536778  0.60825940    -0.15600
C1002       C  0.24163815  0.54167209  0.59609003    -0.30800
H1003       H  0.18240987  0.51795512  0.61902138     0.13400
H1004       H  0.25933851  0.56994466  0.58861742     0.14000
C1005       C  0.37146294  0.99276234  0.73723228    -0.15600
C1006       C  0.33993510  0.96722457  0.72239153    -0.30800
H1007       H  0.39420013  0.00862922  0.71859499     0.13400
H1008       H  0.31510666  0.95410768  0.74089449     0.14000
C1009       C  0.33411845  0.99686442  0.97216566    -0.15600
C1010       C  0.37179642  0.97403253  0.48667570    -0.30800
H1011       H  0.30863017  0.01048117  0.99029774     0.13400
H1012       H  0.39520904  0.95858361  0.46774050     0.14000
C1013       C  0.23488206  0.86766029  0.51453851    -0.15600
C1014       C  0.24561650  0.85009212  0.98476187    -0.30800
H1015       H  0.19958589  0.86592397  0.52139282     0.13400
H1016       H  0.28156771  0.84990629  0.98003001     0.14000
C1017       C  0.11606991  0.73978232  0.01098828    -0.15600
C1018       C  0.15963760  0.72361432  0.52754818    -0.30800
H1019       H  0.09296016  0.75690477  0.02904942     0.13400
H1020       H  0.18518699  0.71069663  0.50907467     0.14000
C1021       C  0.16001551  0.74223068  0.77805902    -0.15600
C1022       C  0.12524518  0.72186873  0.76207503    -0.30800
H1023       H  0.18667863  0.75357740  0.76041979     0.13400
H1024       H  0.09984931  0.70813423  0.77960009     0.14000
C1025       C  0.23995103  0.92047778  0.84872230    -0.15600
C1026       C  0.19670966  0.91739454  0.85923981    -0.30800
H1027       H  0.25901687  0.89176412  0.84304061     0.13400
H1028       H  0.17834142  0.94533971  0.86823870     0.14000
C1029       C  0.25926672  0.67088565  0.90829916    -0.15600
C1030       C  0.29963422  0.66613993  0.89228599    -0.30800
H1031       H  0.24279050  0.64326431  0.91898372     0.13400
H1032       H  0.31462138  0.69283744  0.87858582     0.14000
C1033       C  0.01376610  0.68407912  0.62187548    -0.15600
C1034       C  0.98520097  0.65248139  0.61751107    -0.30800
H1035       H  0.00167799  0.71601037  0.61636621     0.13400
H1036       H  0.99626390  0.62033158  0.62321278     0.14000
C1037       C  0.50964960  0.56186346  0.87633089    -0.15600
C1038       C  0.48160830  0.52930144  0.87471976    -0.30800
H1039       H  0.49755478  0.59334618  0.86917465     0.13400
H1040       H  0.49465062  0.49801402  0.88152346     0.14000
C1041       C  0.73880107  0.61823893  0.51348451    -0.15600
C1042       C  0.75545457  0.60011775  0.98330240    -0.30800
H1043       H  0.70348289  0.61533798  0.51989603     0.13400
H1044       H  0.79109451  0.60133515  0.97750438     0.14000
C1045       C  0.51125076  0.93555435  0.61919362    -0.15600
C1046       C  0.48259202  0.90366932  0.61793336    -0.30800
H1047       H  0.49883339  0.96708114  0.61238397     0.13400
H1048       H  0.49413251  0.87187919  0.62457585     0.14000
C1049       C  0.69808007  0.79626389  0.60578478    -0.15600
C1050       C  0.74134718  0.79309584  0.59505945    -0.30800
H1051       H  0.68136888  0.76873407  0.61628697     0.13400
H1052       H  0.75876402  0.82161437  0.58787427     0.14000
C1053       C  0.76312564  0.54029925  0.65682799    -0.15600
C1054       C  0.80131472  0.54353692  0.63768120    -0.30800
H1055       H  0.74794859  0.56849458  0.66890149     0.13400
H1056       H  0.81444869  0.51628833  0.62260758     0.14000
C1057       C  0.66431899  0.97382740  0.52064751    -0.15600
C1058       C  0.63171735  0.00862403  0.00621459    -0.30800
H1059       H  0.69148255  0.96220742  0.50317719     0.13400
H1060       H  0.61206418  0.02834760  0.02507167     0.14000
C1061       C  0.62830408  0.98137457  0.75489020    -0.15600
C1062       C  0.65252578  0.01467969  0.76651284    -0.30800
H1063       H  0.61412218  0.96062065  0.77571446     0.13400
H1064       H  0.68318863  0.50774934  0.76035824     0.14000
C1065       C  0.97928500  0.81655948  0.86920086    -0.15600
C1066       C  0.00967311  0.78494156  0.87049915    -0.30800
H1067       H  0.98874157  0.84823466  0.87711185     0.13400
H1068       H  0.99896456  0.75351056  0.86277074     0.14000
C1069       C  0.73330288  0.84881659  0.76149167    -0.15600
C1070       C  0.74931238  0.86033797  0.72770803    -0.30800
H1071       H  0.69771144  0.85190573  0.76730340     0.13400
H1072       H  0.78489724  0.85697704  0.72192309     0.14000
C1073       C  0.87495312  0.74805963  0.73360807    -0.15600
C1074       C  0.84464314  0.72094809  0.71925270    -0.30800
H1075       H  0.89648924  0.76498213  0.71470487     0.13400
H1076       H  0.82084788  0.70685326  0.73813321     0.14000
C1077       C  0.83510912  0.74571655  0.96754334    -0.15600
C1078       C  0.87358224  0.72069029  0.48260940    -0.30800
H1079       H  0.80782145  0.75780643  0.98465400     0.13400
H1080       H  0.89796425  0.70629607  0.46390586     0.14000
C1081       C  0.78091417  0.91611778  0.89353608    -0.15600
C1082       C  0.77839469  0.95110464  0.87259449    -0.30800
H1083       H  0.75994318  0.91351802  0.91823860     0.13400
H1084       H  0.79919769  0.95391471  0.84782067     0.14000
C1085       C  0.74561168  0.67097908  0.84175796    -0.15600
C1086       C  0.70300670  0.66923633  0.85363531    -0.30800
H1087       H  0.76431152  0.64190445  0.83665915     0.13400
H1088       H  0.68558067  0.69788598  0.86225899     0.14000
loop_ 
_geom_bond_atom_site_label_1 
_geom_bond_atom_site_label_2 
_geom_bond_distance 
_geom_bond_site_symmetry_2 
_ccdc_geom_bond_type 
O1           C16   1.255       .  A
O1           Al9   1.886       .  S
C2           O12   1.261       .  A
C2            O3   1.264       .  A
C2          C257   1.475       .  S
O3           Al5   1.934       .  S
O4            C6   1.261       .  A
O4           Al5   1.866       .  S
Al5          O13   1.904       .  S
Al5          O15   1.919       .  S
Al5          O14   1.793       .  S
C6           O19   1.267       .  A
C6          C253   1.461       .  S
O7           C17   1.256       .  A
O7           Al9   1.913       .  S
O8           C21   1.263       .  A
O8          Al18   1.892       .  S
Al9          O22   1.915       .  S
Al9          O19   1.921       .  S
Al9          O14   1.783       .  S
O10          C17   1.258       .  A
O10         Al18   1.904       .  S
O11          C20   1.266       .  A
O11         Al18   1.924       .  S
O12         Al18   1.900       .  S
O13          C20   1.264       .  A
O14         Al18   1.773       .  S
O15          C16   1.257       .  A
C16         C265   1.479       .  S
C17         C269   1.479       .  S
C20         C249   1.472       .  S
C21          O22   1.265       .  A
C21         C261   1.472       .  S
O23          C38   1.270       .  A
O23         Al31   1.922       .  S
C24          O34   1.263       .  A
C24          O25   1.261       .  A
C24         C245   1.467       .  S
O25         Al27   1.892       .  S
O26          C28   1.252       .  A
O26         Al27   1.886       .  S
Al27         O35   1.905       .  S
Al27         O37   1.895       .  S
Al27         O36   1.779       .  S
C28          O41   1.256       .  A
C28         C781   1.477       .  S
O29          C39   1.266       .  A
O29         Al31   1.914       .  S
O30          C43   1.258       .  A
O30         Al40   1.914       .  S
Al31         O44   1.891       .  S
Al31         O41   1.919       .  S
Al31         O36   1.783       .  S
O32          C39   1.261       .  A
O32         Al40   1.869       .  S
O33          C42   1.265       .  A
O33         Al40   1.919       .  S
O34         Al40   1.930       .  S
O35          C42   1.261       .  A
O36         Al40   1.794       .  S
O37          C38   1.266       .  A
C38         C241   1.473       .  S
C39         C254   1.461       .  S
C42         C229   1.470       .  S
C43          O44   1.257       .  A
C43         C233   1.483       .  S
O45          C60   1.250       .  A
O45         Al53   1.878       .  S
C46          O47   1.264       .  A
C46         O600   1.262   1_545  A
C46         C786   1.473   1_545  S
O47         Al49   1.933       .  S
O48          C50   1.264       .  A
O48         Al49   1.868       .  S
Al49         O57   1.924       .  S
Al49         O59   1.946       .  S
Al49         O58   1.795       .  S
C50          O63   1.271       .  A
C50         C226   1.465       .  S
O51         C605   1.252   1_545  A
O51         Al53   1.893       .  S
O52          C65   1.263   1_565  A
O52         Al62   1.891       .  S
Al53         O66   1.914       .  S
Al53         O63   1.935       .  S
Al53         O58   1.777       .  S
O54          C61   1.251       .  A
O54        Al606   1.883       .  S
O55          C64   1.266       .  A
O55         Al62   1.916   1_545  S
O56         C590   1.263       .  A
O56        Al606   1.889       .  S
O57          C64   1.273       .  A
O58         Al62   1.774   1_545  S
O59          C60   1.259       .  A
C60         C270   1.490       .  S
C61         O595   1.253       .  A
C61         C266   1.468       .  S
Al62        O598   1.900       .  S
Al62        O600   1.904       .  S
C64         C221   1.476       .  S
C65          O66   1.266       .  A
C65         C790   1.470       .  S
O67          C82   1.272       .  A
O67         Al75   1.931       .  S
C68          O78   1.262       .  A
C68          O69   1.260       .  A
C68         C262   1.469   1_554  S
O69         Al71   1.898       .  S
O70          C72   1.253       .  A
O70         Al71   1.891       .  S
Al71         O79   1.923       .  S
Al71         O81   1.895       .  S
Al71         O80   1.779       .  S
C72          O85   1.255       .  A
C72         C234   1.478       .  S
O73          C83   1.270       .  A
O73         Al75   1.935       .  S
O74          C87   1.253       .  A
O74         Al84   1.893       .  S
Al75         O88   1.892       .  S
Al75         O85   1.915       .  S
Al75         O80   1.779       .  S
O76          C83   1.257       .  A
O76         Al84   1.848       .  S
O77          C86   1.257       .  A
O77         Al84   1.893       .  S
O78         Al84   1.925       .  S
O79          C86   1.268       .  A
O80         Al84   1.796       .  S
O81          C82   1.268       .  A
C82         C258   1.477       .  S
C83         C225   1.466       .  S
C86         C218   1.476       .  S
C87          O88   1.257       .  A
C87         C238   1.475       .  S
O89         C104   1.256       .  A
O89         Al97   1.886       .  S
C90         O100   1.260       .  A
C90          O91   1.267       .  A
C90         C201   1.480       .  S
O91         Al93   1.944       .  S
O92          C94   1.259       .  A
O92         Al93   1.855       .  S
Al93        O101   1.911       .  S
Al93        O103   1.922       .  S
Al93        O102   1.789       .  S
C94         O107   1.265       .  A
C94         C198   1.454       .  S
O95         C105   1.255       .  A
O95         Al97   1.905       .  S
O96         C109   1.266       .  A
O96        Al106   1.892       .  S
Al97        O110   1.919       .  S
Al97        O107   1.912       .  S
Al97        O102   1.783       .  S
O98         C105   1.252       .  A
O98        Al106   1.886       .  S
O99         C108   1.264       .  A
O99        Al106   1.913       .  S
O100       Al106   1.895       .  S
O101        C108   1.263       .  A
O102       Al106   1.779       .  S
O103        C104   1.260       .  A
C104        C210   1.482       .  S
C105        C213   1.469       .  S
C108        C250   1.480       .  S
C109        O110   1.268       .  A
C109        C205   1.470       .  S
O111        C126   1.269       .  A
O111       Al119   1.929       .  S
C112        O122   1.261       .  A
C112        O113   1.259       .  A
C112        C194   1.470   1_554  S
O113       Al115   1.898       .  S
O114        C116   1.255       .  A
O114       Al115   1.894       .  S
Al115       O123   1.918       .  S
Al115       O125   1.901       .  S
Al115       O124   1.779       .  S
C116        O129   1.256       .  A
C116        C730   1.474       .  S
O117        C127   1.269       .  A
O117       Al119   1.935       .  S
O118        C131   1.256       .  A
O118       Al128   1.908       .  S
Al119       O132   1.890       .  S
Al119       O129   1.907       .  S
Al119       O124   1.781       .  S
O120        C127   1.263       .  A
O120       Al128   1.881       .  S
O121        C130   1.263       .  A
O121       Al128   1.908       .  S
O122       Al128   1.926       .  S
O123        C130   1.268       .  A
O124       Al128   1.794       .  S
O125        C126   1.264       .  A
C126        C190   1.482       .  S
C127        C197   1.475       .  S
C130        C230   1.482       .  S
C131        O132   1.257       .  A
C131        C181   1.475       .  S
O133        C148   1.270       .  A
O133       Al141   1.931       .  S
C134        O144   1.266       .  A
C134        O135   1.261       .  A
C134        C206   1.470       .  S
O135       Al137   1.885       .  S
O136        C138   1.252       .  A
O136       Al137   1.883       .  S
Al137       O145   1.895       .  S
Al137       O147   1.886       .  S
Al137       O146   1.777       .  S
C138        O151   1.255       .  A
C138        C182   1.468       .  S
O139        C149   1.268       .  A
O139       Al141   1.923       .  S
O140        C153   1.260       .  A
O140       Al150   1.928       .  S
Al141       O154   1.886       .  S
Al141       O151   1.908       .  S
Al141       O146   1.779       .  S
O142        C149   1.261       .  A
O142       Al150   1.870       .  S
O143        C152   1.267       .  A
O143       Al150   1.917       .  S
O144       Al150   1.939       .  S
O145        C152   1.259       .  A
O146       Al150   1.791       .  S
O147        C148   1.263       .  A
C148        C202   1.474       .  S
C149        C178   1.462       .  S
C152        C217   1.464       .  S
C153        O154   1.256       .  A
C153        C185   1.484       .  S
O155        C170   1.257       .  A
O155       Al163   1.891       .  S
C156        O157   1.263       .  A
C156        O710   1.260   1_545  A
C156        C733   1.475   1_545  S
O157       Al159   1.932       .  S
O158        C160   1.259       .  A
O158       Al159   1.860       .  S
Al159       O167   1.889       .  S
Al159       O169   1.909       .  S
Al159       O168   1.790       .  S
C160        O173   1.269       .  A
C160        C177   1.465       .  S
O161        C715   1.256       .  A
O161       Al163   1.910   1_565  S
O162        C175   1.264   1_565  A
O162       Al172   1.891       .  S
Al163       O176   1.927       .  S
Al163       O173   1.933       .  S
Al163       O168   1.782       .  S
O164        C171   1.260       .  A
O164       Al716   1.912       .  S
O165        C174   1.272       .  A
O165       Al172   1.947   1_545  S
O166        C700   1.260       .  A
O166       Al716   1.902       .  S
O167        C174   1.259       .  A
O168       Al172   1.777   1_545  S
O169        C170   1.256       .  A
C170        C214   1.474       .  S
C171        O705   1.257       .  A
C171        C209   1.479       .  S
Al172       O708   1.916       .  S
Al172       O710   1.900       .  S
C174        C222   1.481       .  S
C175        O176   1.269       .  A
C175        C737   1.476   1_545  S
C177        C178   1.346       .  D
C177        H179   1.087       .  S
C178        H180   1.086       .  S
C181        C182   1.342       .  D
C181        H183   1.087       .  S
C182        H184   1.088       .  S
C185        C186   1.350       .  D
C185        H187   1.086       .  S
C186        C660   1.479       .  S
C186        H188   1.088       .  S
C189        C700   1.480       .  S
C189        C190   1.348       .  D
C189        H191   1.087       .  S
C190        H192   1.087       .  S
C193        C719   1.477       .  S
C193        C466   1.345       .  D
C193        H195   1.087       .  S
C194        C465   1.344       .  D
C194        H196   1.086       .  S
C197        C470   1.346   1_554  D
C197        H199   1.086       .  S
C198        C469   1.341       .  D
C198        H200   1.087       .  S
C201        C474   1.349       .  D
C201        H203   1.086       .  S
C202        C473   1.346       .  D
C202        H204   1.087       .  S
C205        C206   1.343       .  D
C205        H207   1.087       .  S
C206        H208   1.087       .  S
C209        C210   1.350       .  D
C209        H211   1.088       .  S
C210        H212   1.086       .  S
C213        C214   1.342       .  D
C213        H215   1.088       .  S
C214        H216   1.087       .  S
C217        C218   1.337   1_455  D
C217        H219   1.088   1_455  S
C218        H220   1.086       .  S
C221        C222   1.339       .  D
C221        H223   1.087   1_545  S
C222        H224   1.086       .  S
C225        C498   1.348   1_554  D
C225        H227   1.086       .  S
C226        C497   1.344       .  D
C226        H228   1.087       .  S
C229        C230   1.343       .  D
C229        H231   1.087       .  S
C230        H232   1.086       .  S
C233        C234   1.347       .  D
C233        H235   1.086       .  S
C234        H236   1.087       .  S
C237        C572   1.464       .  S
C237        C238   1.338       .  D
C237        H239   1.087       .  S
C238        H240   1.088       .  S
C241        C514   1.344       .  D
C241        H243   1.088       .  S
C242        C590   1.471       .  S
C242        C513   1.342       .  D
C242        H244   1.086       .  S
C245        C246   1.344       .  D
C245        H247   1.086       .  S
C246        C609   1.471       .  S
C246        H792   1.088       .  S
H248        C790   1.088       .  S
C249        C250   1.346   1_655  D
C249        H251   1.087       .  S
C250        H252   1.086   1_455  S
C253        C254   1.343       .  D
C253        H255   1.087       .  S
C254        H256   1.087       .  S
C257        C258   1.346       .  D
C257        H259   1.086       .  S
C258        H260   1.087       .  S
C261        C534   1.342       .  D
C261        H263   1.088       .  S
C262        C533   1.348       .  D
C262        H264   1.086       .  S
C265        C266   1.344       .  D
C265        H267   1.087       .  S
C266        H268   1.087       .  S
C269        C270   1.352       .  D
C269        H271   1.087       .  S
C270        H272   1.086       .  S
O273        C288   1.253       .  A
O273       Al281   1.886       .  S
C274        O284   1.258       .  A
C274        O275   1.260       .  A
C274        C529   1.478       .  S
O275       Al277   1.934       .  S
O276        C278   1.263       .  A
O276       Al277   1.861       .  S
Al277       O285   1.895       .  S
Al277       O287   1.934       .  S
Al277       O286   1.795       .  S
C278        O291   1.271       .  A
C278        C525   1.460       .  S
O279        C289   1.250       .  A
O279       Al281   1.870       .  S
O280        C293   1.258       .  A
O280       Al290   1.879       .  S
Al281       O294   1.917       .  S
Al281       O291   1.934       .  S
Al281       O286   1.782       .  S
O282        C289   1.269       .  A
O282       Al290   1.976       .  S
O283        C292   1.278       .  A
O283       Al290   1.964       .  S
O284       Al290   1.892       .  S
O285        C292   1.267       .  A
O286       Al290   1.779       .  S
O287        C288   1.258       .  A
C288        C537   1.484       .  S
C289        C541   1.493       .  S
C292        C521   1.486       .  S
C293        O294   1.264       .  A
C293        C533   1.474       .  S
O295        C310   1.267       .  A
O295       Al303   1.913       .  S
C296        O306   1.264       .  A
C296        O297   1.262       .  A
C296        C517   1.470       .  S
O297       Al299   1.893       .  S
O298        C300   1.250       .  A
O298       Al299   1.879       .  S
Al299       O307   1.891       .  S
Al299       O309   1.896       .  S
Al299       O308   1.779       .  S
C300        O313   1.254       .  A
C300       C1053   1.469       .  S
O301        C311   1.265       .  A
O301       Al303   1.912       .  S
O302        C315   1.259       .  A
O302       Al312   1.926       .  S
Al303       O316   1.886       .  S
Al303       O313   1.909       .  S
Al303       O308   1.783       .  S
O304        C311   1.260       .  A
O304       Al312   1.867       .  S
O305        C314   1.267       .  A
O305       Al312   1.918       .  S
O306       Al312   1.933       .  S
O307        C314   1.258       .  A
O308       Al312   1.793       .  S
O309        C310   1.266       .  A
C310        C513   1.470       .  S
C311        C526   1.459       .  S
C314        C501   1.464       .  S
C315        O316   1.255       .  A
C315        C505   1.487       .  S
O317        C332   1.242       .  A
O317       Al325   1.890       .  S
C318        O872   1.262   1_545  A
C318        O319   1.262       .  A
C318       C1058   1.485   1_556  S
O319       Al321   1.915       .  S
O320        C322   1.275       .  A
O320       Al321   1.919       .  S
Al321       O329   1.921       .  S
Al321       O331   1.932       .  S
Al321       O330   1.780       .  S
C322        O335   1.274       .  A
C322        C498   1.459       .  S
O323        C877   1.242   1_545  A
O323       Al325   1.882       .  S
O324        C337   1.280   1_565  A
O324       Al334   1.941       .  S
Al325       O338   1.909       .  S
Al325       O335   1.888       .  S
Al325       O330   1.789       .  S
O326        C333   1.256       .  A
O326       Al878   1.906       .  S
O327        C336   1.257       .  A
O327       Al334   1.897   1_545  S
O328        C862   1.262       .  A
O328       Al878   1.892       .  S
O329        C336   1.262       .  A
O330       Al334   1.775   1_545  S
O331        C332   1.261       .  A
C332        C542   1.472       .  S
C333        O867   1.255       .  A
C333        C538   1.479       .  S
Al334       O870   1.913       .  S
Al334       O872   1.907       .  S
C336        C493   1.486       .  S
C337        O338   1.278       .  A
C337       C1062   1.479       .  S
O339        C354   1.264       .  A
O339       Al347   1.905       .  S
C340        O350   1.259       .  A
C340        O341   1.260       .  A
C340        C534   1.468       .  S
O341       Al343   1.903       .  S
O342        C344   1.257       .  A
O342       Al343   1.898       .  S
Al343       O351   1.926       .  S
Al343       O353   1.910       .  S
Al343       O352   1.775       .  S
C344        O357   1.258       .  A
C344        C506   1.478       .  S
O345        C355   1.267       .  A
O345       Al347   1.921       .  S
O346        C359   1.254       .  A
O346       Al356   1.899       .  S
Al347       O360   1.891       .  S
Al347       O357   1.916       .  S
Al347       O352   1.781       .  S
O348        C355   1.261       .  A
O348       Al356   1.873       .  S
O349        C358   1.260       .  A
O349       Al356   1.894       .  S
O350       Al356   1.919       .  S
O351        C358   1.270       .  A
O352       Al356   1.795       .  S
O353        C354   1.266       .  A
C354        C530   1.473       .  S
C355        C497   1.464       .  S
C358        C490   1.477       .  S
C359        O360   1.257       .  A
C359        C510   1.471       .  S
O361        C376   1.256       .  A
O361       Al369   1.885       .  S
C362        O372   1.261       .  A
C362        O363   1.264       .  A
C362        C473   1.470   1_556  S
O363       Al365   1.930       .  S
O364        C366   1.262       .  A
O364       Al365   1.893       .  S
Al365       O373   1.924       .  S
Al365       O375   1.932       .  S
Al365       O374   1.792       .  S
C366        O379   1.266       .  A
C366        C470   1.471       .  S
O367        C377   1.256       .  A
O367       Al369   1.908       .  S
O368        C381   1.267       .  A
O368       Al378   1.906       .  S
Al369       O382   1.917       .  S
Al369       O379   1.919       .  S
Al369       O374   1.780       .  S
O370        C377   1.255       .  A
O370       Al378   1.896       .  S
O371        C380   1.265       .  A
O371       Al378   1.924       .  S
O372       Al378   1.895       .  S
O373        C380   1.268       .  A
O374       Al378   1.782       .  S
O375        C376   1.261       .  A
C376        C482   1.486       .  S
C377        C485   1.473       .  S
C380        C522   1.489   1_455  S
C381        O382   1.267       .  A
C381        C477   1.475       .  S
O383        C398   1.264       .  A
O383       Al391   1.908       .  S
C384        O394   1.263       .  A
C384        O385   1.260       .  A
C384        C466   1.476       .  S
O385       Al387   1.900       .  S
O386        C388   1.258       .  A
O386       Al387   1.902       .  S
Al387       O395   1.925       .  S
Al387       O397   1.895       .  S
Al387       O396   1.774       .  S
C388        O401   1.257       .  A
C388       C1002   1.477       .  S
O389        C399   1.265       .  A
O389       Al391   1.913       .  S
O390        C403   1.258       .  A
O390       Al400   1.916       .  S
Al391       O404   1.892       .  S
Al391       O401   1.910       .  S
Al391       O396   1.782       .  S
O392        C399   1.259       .  A
O392       Al400   1.856       .  S
O393        C402   1.259       .  A
O393       Al400   1.893       .  S
O394       Al400   1.935       .  S
O395        C402   1.270       .  A
O396       Al400   1.791       .  S
O397        C398   1.264       .  A
C398        C462   1.469       .  S
C399        C469   1.453       .  S
C402        C502   1.476       .  S
C403        O404   1.257       .  A
C403        C453   1.479       .  S
O405        C420   1.270       .  A
O405       Al413   1.930       .  S
C406        O416   1.263       .  A
C406        O407   1.261       .  A
C406        C478   1.477       .  S
O407       Al409   1.898       .  S
O408        C410   1.250       .  A
O408       Al409   1.877       .  S
Al409       O417   1.895       .  S
Al409       O419   1.899       .  S
Al409       O418   1.782       .  S
C410        O423   1.254       .  A
C410        C454   1.471       .  S
O411        C421   1.271       .  A
O411       Al413   1.929       .  S
O412        C425   1.257       .  A
O412       Al422   1.925       .  S
Al413       O426   1.888       .  S
Al413       O423   1.909       .  S
Al413       O418   1.784       .  S
O414        C421   1.263       .  A
O414       Al422   1.876       .  S
O415        C424   1.268       .  A
O415       Al422   1.919       .  S
O416       Al422   1.935       .  S
O417        C424   1.261       .  A
O418       Al422   1.799       .  S
O419        C420   1.264       .  A
C420        C474   1.481       .  S
C421        C450   1.468       .  S
C424        C489   1.466       .  S
C425        O426   1.254       .  A
C425        C457   1.488       .  S
O427        C442   1.256       .  A
O427       Al435   1.887       .  S
C428        O982   1.261   1_545  A
C428        O429   1.265       .  A
C428       C1005   1.478   1_545  S
O429       Al431   1.938       .  S
O430        C432   1.260       .  A
O430       Al431   1.869       .  S
Al431       O439   1.904       .  S
Al431       O441   1.919       .  S
Al431       O440   1.791       .  S
C432        O445   1.269       .  A
C432        C449   1.470       .  S
O433        C987   1.256       .  A
O433       Al435   1.915   1_565  S
O434        C447   1.266   1_565  A
O434       Al444   1.897       .  S
Al435       O448   1.928       .  S
Al435       O445   1.933       .  S
Al435       O440   1.785       .  S
O436        C443   1.254       .  A
O436       Al988   1.893       .  S
O437        C446   1.269       .  A
O437       Al444   1.949   1_545  S
O438        C972   1.261       .  A
O438       Al988   1.893       .  S
O439        C446   1.261       .  A
O440       Al444   1.781   1_545  S
O441        C442   1.258       .  A
C442        C486   1.481       .  S
C443        O977   1.255       .  A
C443        C481   1.478       .  S
Al444       O980   1.910       .  S
Al444       O982   1.901       .  S
C446        C494   1.488       .  S
C447        O448   1.270       .  A
C447       C1009   1.478   1_545  S
C449        C450   1.348       .  D
C449        H451   1.086       .  S
C450        H452   1.087       .  S
C453        C454   1.343       .  D
C453        H455   1.087       .  S
C454        H456   1.087       .  S
C457        C458   1.351       .  D
C457        H459   1.086       .  S
C458        C932   1.483       .  S
C458        H460   1.088       .  S
C461        C972   1.468       .  S
C461        C462   1.340       .  D
C461        H463   1.087       .  S
C462        H464   1.088       .  S
C465        C991   1.474       .  S
C465        H467   1.087       .  S
C466        H468   1.087       .  S
C469        H471   1.087       .  S
C470        H472   1.087       .  S
C473        H475   1.086       .  S
C474        H476   1.087       .  S
C477        C478   1.343       .  D
C477        H479   1.087       .  S
C478        H480   1.086       .  S
C481        C482   1.349       .  D
C481        H483   1.087       .  S
C482        H484   1.087       .  S
C485        C486   1.346       .  D
C485        H487   1.087       .  S
C486        H488   1.086       .  S
C489        C490   1.338   1_455  D
C489        H491   1.087   1_455  S
C490        H492   1.086       .  S
C493        C494   1.347       .  D
C493        H495   1.087   1_545  S
C494        H496   1.086       .  S
C497        H499   1.087       .  S
C498        H500   1.087       .  S
C501        C502   1.337       .  D
C501        H503   1.088       .  S
C502        H504   1.087       .  S
C505        C506   1.349       .  D
C505        H507   1.086       .  S
C506        H508   1.087       .  S
C509        C844   1.460       .  S
C509        C510   1.337       .  D
C509        H511   1.087       .  S
C510        H512   1.088       .  S
C513        H515   1.088       .  S
C514        C862   1.472   1_554  S
C514        H516   1.086       .  S
C517        C518   1.342       .  D
C517        H519   1.086       .  S
C518        C881   1.470       .  S
C518       H1064   1.088       .  S
H520       C1062   1.087       .  S
C521        C522   1.355       .  D
C521        H523   1.086       .  S
C522        H524   1.086       .  S
C525        C526   1.343       .  D
C525        H527   1.087       .  S
C526        H528   1.087       .  S
C529        C530   1.343       .  D
C529        H531   1.086       .  S
C530        H532   1.088       .  S
C533        H535   1.087       .  S
C534        H536   1.086       .  S
C537        C538   1.349       .  D
C537        H539   1.087       .  S
C538        H540   1.087       .  S
C541        C542   1.356       .  D
C541        H543   1.087       .  S
C542        H544   1.087       .  S
O545        C560   1.252       .  A
O545       Al553   1.876       .  S
C546        O556   1.261       .  A
C546        O547   1.267       .  A
C546        C801   1.475       .  S
O547       Al549   1.941       .  S
O548        C550   1.257       .  A
O548       Al549   1.862       .  S
Al549       O557   1.907       .  S
Al549       O559   1.930       .  S
Al549       O558   1.792       .  S
C550        O563   1.271       .  A
C550        C797   1.477       .  S
O551        C561   1.256       .  A
O551       Al553   1.906       .  S
O552        C565   1.266       .  A
O552       Al562   1.901       .  S
Al553       O566   1.937       .  S
Al553       O563   1.949       .  S
Al553       O558   1.777       .  S
O554        C561   1.260       .  A
O554       Al562   1.918       .  S
O555        C564   1.270       .  A
O555       Al562   1.936       .  S
O556       Al562   1.890       .  S
O557        C564   1.261       .  A
O558       Al562   1.777       .  S
O559        C560   1.263       .  A
C560        C809   1.473       .  S
C561        C813   1.482       .  S
C564        C793   1.489       .  S
C565        O566   1.272       .  A
C565        C805   1.481       .  S
O567        C582   1.270       .  A
O567       Al575   1.938       .  S
C568        O578   1.263       .  A
C568        O569   1.259       .  A
C568        C789   1.471       .  S
O569       Al571   1.884       .  S
O570        C572   1.250       .  A
O570       Al571   1.873   1_545  S
Al571       O579   1.891       .  S
Al571       O581   1.902       .  S
Al571       O580   1.782       .  S
C572        O585   1.256   1_545  A
O573        C583   1.269       .  A
O573       Al575   1.932       .  S
O574        C587   1.260       .  A
O574       Al584   1.925       .  S
Al575       O588   1.890       .  S
Al575       O585   1.910       .  S
Al575       O580   1.778       .  S
O576        C583   1.260       .  A
O576       Al584   1.881       .  S
O577        C586   1.266       .  A
O577       Al584   1.912       .  S
O578       Al584   1.930       .  S
O579        C586   1.259       .  A
O580       Al584   1.799       .  S
O581        C582   1.265       .  A
C582        C785   1.486       .  S
C583        C798   1.471       .  S
C586        C773   1.463       .  S
C587        O588   1.257       .  A
C587        C777   1.485       .  S
O589        C604   1.253       .  A
O589       Al597   1.881       .  S
C590        O591   1.266       .  A
O591       Al593   1.937       .  S
O592        C594   1.260       .  A
O592       Al593   1.870       .  S
Al593       O601   1.926       .  S
Al593       O603   1.931       .  S
Al593       O602   1.792       .  S
C594        O607   1.268       .  A
C594        C770   1.459       .  S
O595       Al597   1.906       .  S
O596        C609   1.264       .  A
O596       Al606   1.884       .  S
Al597       O610   1.925       .  S
Al597       O607   1.916       .  S
Al597       O602   1.782       .  S
O598        C605   1.257       .  A
O599        C608   1.258       .  A
O599       Al606   1.892       .  S
O601        C608   1.269       .  A
O602       Al606   1.777       .  S
O603        C604   1.261       .  A
C604        C814   1.486       .  S
C605        C810   1.474       .  S
C608        C765   1.468       .  S
C609        O610   1.270       .  A
O611        C626   1.270       .  A
O611       Al619   1.927       .  S
C612        O622   1.263       .  A
C612        O613   1.260       .  A
C612        C806   1.471   1_554  S
O613       Al615   1.890       .  S
O614        C616   1.251       .  A
O614       Al615   1.882       .  S
Al615       O623   1.899       .  S
Al615       O625   1.890       .  S
Al615       O624   1.779       .  S
C616        O629   1.255       .  A
C616        C778   1.476       .  S
O617        C627   1.269       .  A
O617       Al619   1.925       .  S
O618        C631   1.256       .  A
O618       Al628   1.916       .  S
Al619       O632   1.892       .  S
Al619       O629   1.918       .  S
Al619       O624   1.784       .  S
O620        C627   1.262       .  A
O620       Al628   1.867       .  S
O621        C630   1.267       .  A
O621       Al628   1.913       .  S
O622       Al628   1.933       .  S
O623        C630   1.261       .  A
O624       Al628   1.796       .  S
O625        C626   1.263       .  A
C626        C802   1.476       .  S
C627        C769   1.463       .  S
C630        C762   1.465       .  S
C631        O632   1.256       .  A
C631        C782   1.485       .  S
O633        C648   1.254       .  A
O633       Al641   1.882       .  S
C634        O644   1.261       .  A
C634        O635   1.266       .  A
C634        C745   1.475       .  S
O635       Al637   1.938       .  S
O636        C638   1.262       .  A
O636       Al637   1.880       .  S
Al637       O645   1.937       .  S
Al637       O647   1.933       .  S
Al637       O646   1.797       .  S
C638        O651   1.270       .  A
C638        C742   1.470       .  S
O639        C649   1.253       .  A
O639       Al641   1.907       .  S
O640        C653   1.265       .  A
O640       Al650   1.895       .  S
Al641       O654   1.936       .  S
Al641       O651   1.929       .  S
Al641       O646   1.781       .  S
O642        C649   1.250       .  A
O642       Al650   1.881       .  S
O643        C652   1.261       .  A
O643       Al650   1.901       .  S
O644       Al650   1.895       .  S
O645        C652   1.270       .  A
O646       Al650   1.780       .  S
O647        C648   1.261       .  A
C648        C754   1.488       .  S
C649        C757   1.470       .  S
C652        C794   1.478       .  S
C653        O654   1.272       .  A
C653        C749   1.481       .  S
O655        C670   1.270       .  A
O655       Al663   1.929       .  S
C656        O666   1.264       .  A
C656        O657   1.260       .  A
C656        C738   1.476   1_554  S
O657       Al659   1.901       .  S
O658        C660   1.257       .  A
O658       Al659   1.900   1_545  S
Al659       O667   1.927       .  S
Al659       O669   1.892       .  S
Al659       O668   1.777       .  S
C660        O673   1.256   1_545  A
O661        C671   1.269       .  A
O661       Al663   1.932       .  S
O662        C675   1.257       .  A
O662       Al672   1.914       .  S
Al663       O676   1.894       .  S
Al663       O673   1.912       .  S
Al663       O668   1.784       .  S
O664        C671   1.258       .  A
O664       Al672   1.846       .  S
O665        C674   1.259       .  A
O665       Al672   1.891       .  S
O666       Al672   1.938       .  S
O667        C674   1.270       .  A
O668       Al672   1.789       .  S
O669        C670   1.264       .  A
C670        C734   1.477       .  S
C671        C741   1.461       .  S
C674        C774   1.474       .  S
C675        O676   1.257       .  A
C675        C725   1.480       .  S
O677        C692   1.267       .  A
O677       Al685   1.917       .  S
C678        O688   1.264       .  A
C678        O679   1.260       .  A
C678        C750   1.478       .  S
O679       Al681   1.903       .  S
O680        C682   1.255       .  A
O680       Al681   1.895       .  S
Al681       O689   1.923       .  S
Al681       O691   1.902       .  S
Al681       O690   1.778       .  S
C682        O695   1.257       .  A
C682        C726   1.476       .  S
O683        C693   1.266       .  A
O683       Al685   1.920       .  S
O684        C697   1.257       .  A
O684       Al694   1.913       .  S
Al685       O698   1.892       .  S
Al685       O695   1.912       .  S
Al685       O690   1.780       .  S
O686        C693   1.258       .  A
O686       Al694   1.856       .  S
O687        C696   1.259       .  A
O687       Al694   1.895       .  S
O688       Al694   1.936       .  S
O689        C696   1.269       .  A
O690       Al694   1.792       .  S
O691        C692   1.266       .  A
C692        C746   1.473       .  S
C693        C722   1.457       .  S
C696        C761   1.476       .  S
C697        O698   1.257       .  A
C697        C729   1.477       .  S
O699        C714   1.258       .  A
O699       Al707   1.890       .  S
C700        O701   1.264       .  A
O701       Al703   1.938       .  S
O702        C704   1.258       .  A
O702       Al703   1.855       .  S
Al703       O711   1.887       .  S
Al703       O713   1.919       .  S
Al703       O712   1.790       .  S
C704        O717   1.266       .  A
C704        C721   1.457       .  S
O705       Al707   1.906       .  S
O706        C719   1.265       .  A
O706       Al716   1.900       .  S
Al707       O720   1.922       .  S
Al707       O717   1.923       .  S
Al707       O712   1.780       .  S
O708        C715   1.261       .  A
O709        C718   1.272       .  A
O709       Al716   1.937       .  S
O711        C718   1.258       .  A
O712       Al716   1.775       .  S
O713        C714   1.259       .  A
C714        C758   1.478       .  S
C715        C753   1.484       .  S
C718        C766   1.478       .  S
C719        O720   1.267       .  A
C721        C722   1.344       .  D
C721        H723   1.087       .  S
C722        H724   1.087       .  S
C725        C726   1.345       .  D
C725        H727   1.087       .  S
C726        H728   1.088       .  S
C729        C730   1.345       .  D
C729        H731   1.086       .  S
C730        H732   1.088       .  S
C733        C734   1.346       .  D
C733        H735   1.087   1_565  S
C734        H736   1.088       .  S
C737       C1010   1.345       .  D
C737        H739   1.087   1_565  S
C738       C1009   1.346       .  D
C738        H740   1.087       .  S
C741       C1014   1.345   1_554  D
C741        H743   1.086       .  S
C742       C1013   1.348       .  D
C742        H744   1.087       .  S
C745       C1018   1.347       .  D
C745        H747   1.087       .  S
C746       C1017   1.344       .  D
C746        H748   1.088       .  S
C749        C750   1.349       .  D
C749        H751   1.087       .  S
C750        H752   1.086       .  S
C753        C754   1.354       .  D
C753        H755   1.087       .  S
C754        H756   1.086       .  S
C757        C758   1.343       .  D
C757        H759   1.088       .  S
C758        H760   1.087       .  S
C761        C762   1.339   1_455  D
C761        H763   1.086   1_455  S
C762        H764   1.088       .  S
C765        C766   1.336       .  D
C765        H767   1.088       .  S
C766        H768   1.087       .  S
C769       C1042   1.345   1_554  D
C769        H771   1.087       .  S
C770       C1041   1.347       .  D
C770        H772   1.087       .  S
C773        C774   1.337       .  D
C773        H775   1.088       .  S
C774        H776   1.087       .  S
C777        C778   1.346       .  D
C777        H779   1.086       .  S
C778        H780   1.088       .  S
C781        C782   1.346       .  D
C781        H783   1.087       .  S
C782        H784   1.086       .  S
C785       C1058   1.349   1_565  D
C785        H787   1.087       .  S
C786       C1057   1.344       .  D
C786        H788   1.087   1_565  S
C789        C790   1.345   1_565  D
C789        H791   1.086       .  S
C793        C794   1.343   1_655  D
C793        H795   1.086       .  S
C794        H796   1.087   1_455  S
C797        C798   1.351       .  D
C797        H799   1.086       .  S
C798        H800   1.086       .  S
C801        C802   1.348       .  D
C801        H803   1.086       .  S
C802        H804   1.088       .  S
C805       C1078   1.348       .  D
C805        H807   1.088       .  S
C806       C1077   1.342       .  D
C806        H808   1.087       .  S
C809        C810   1.339       .  D
C809        H811   1.088       .  S
C810        H812   1.086       .  S
C813        C814   1.353       .  D
C813        H815   1.087       .  S
C814        H816   1.086       .  S
O817        C832   1.251       .  A
O817       Al825   1.875       .  S
C818        O828   1.261       .  A
C818        O819   1.268       .  A
C818       C1073   1.479       .  S
O819       Al821   1.946       .  S
O820        C822   1.256       .  A
O820       Al821   1.852       .  S
Al821       O829   1.902       .  S
Al821       O831   1.933       .  S
Al821       O830   1.785       .  S
C822        O835   1.267       .  A
C822       C1069   1.464       .  S
O823        C833   1.256       .  A
O823       Al825   1.895       .  S
O824        C837   1.265       .  A
O824       Al834   1.898       .  S
Al825       O838   1.917       .  S
Al825       O835   1.935       .  S
Al825       O830   1.777       .  S
O826        C833   1.260       .  A
O826       Al834   1.912       .  S
O827        C836   1.270       .  A
O827       Al834   1.930       .  S
O828       Al834   1.894       .  S
O829        C836   1.260       .  A
O830       Al834   1.772       .  S
O831        C832   1.265       .  A
C832       C1081   1.472       .  S
C833       C1085   1.472       .  S
C836       C1065   1.484       .  S
C837        O838   1.267       .  A
C837       C1077   1.469       .  S
O839        C854   1.269       .  A
O839       Al847   1.931       .  S
C840        O850   1.269       .  A
C840        O841   1.260       .  A
C840       C1061   1.480       .  S
O841       Al843   1.885       .  S
O842        C844   1.252       .  A
O842       Al843   1.880   1_545  S
Al843       O851   1.890       .  S
Al843       O853   1.893       .  S
Al843       O852   1.779       .  S
C844        O857   1.255   1_545  A
O845        C855   1.265       .  A
O845       Al847   1.918       .  S
O846        C859   1.265       .  A
O846       Al856   1.942       .  S
Al847       O860   1.882       .  S
Al847       O857   1.903       .  S
Al847       O852   1.780       .  S
O848        C855   1.257       .  A
O848       Al856   1.864       .  S
O849        C858   1.266       .  A
O849       Al856   1.921       .  S
O850       Al856   1.944       .  S
O851        C858   1.257       .  A
O852       Al856   1.790       .  S
O853        C854   1.265       .  A
C854       C1057   1.477       .  S
C855       C1070   1.459       .  S
C858       C1045   1.468       .  S
C859        O860   1.256       .  A
C859       C1049   1.488       .  S
O861        C876   1.255       .  A
O861       Al869   1.881       .  S
C862        O863   1.266       .  A
O863       Al865   1.937       .  S
O864        C866   1.258       .  A
O864       Al865   1.862       .  S
Al865       O873   1.907       .  S
Al865       O875   1.916       .  S
Al865       O874   1.790       .  S
C866        O879   1.266       .  A
C866       C1042   1.463       .  S
O867       Al869   1.910       .  S
O868        C881   1.266       .  A
O868       Al878   1.894       .  S
Al869       O882   1.919       .  S
Al869       O879   1.920       .  S
Al869       O874   1.783       .  S
O870        C877   1.252       .  A
O871        C880   1.266       .  A
O871       Al878   1.924       .  S
O873        C880   1.260       .  A
O874       Al878   1.778       .  S
O875        C876   1.259       .  A
C876       C1086   1.476       .  S
C877       C1082   1.472       .  S
C880       C1037   1.483       .  S
C881        O882   1.269       .  A
O883        C898   1.269       .  A
O883       Al891   1.927       .  S
C884        O894   1.263       .  A
C884        O885   1.260       .  A
C884       C1078   1.480       .  S
O885       Al887   1.905       .  S
O886        C888   1.259       .  A
O886       Al887   1.909       .  S
Al887       O895   1.941       .  S
Al887       O897   1.900       .  S
Al887       O896   1.776       .  S
C888        O901   1.257       .  A
C888       C1050   1.482       .  S
O889        C899   1.270       .  A
O889       Al891   1.939       .  S
O890        C903   1.257       .  A
O890       Al900   1.911       .  S
Al891       O904   1.893       .  S
Al891       O901   1.912       .  S
Al891       O896   1.782       .  S
O892        C899   1.258       .  A
O892       Al900   1.851       .  S
O893        C902   1.258       .  A
O893       Al900   1.886       .  S
O894       Al900   1.938       .  S
O895        C902   1.273       .  A
O896       Al900   1.792       .  S
O897        C898   1.264       .  A
C898       C1074   1.479       .  S
C899       C1041   1.465       .  S
C902       C1034   1.479       .  S
C903        O904   1.257       .  A
C903       C1054   1.477       .  S
O905        C920   1.255       .  A
O905       Al913   1.884       .  S
C906        O916   1.262       .  A
C906        O907   1.268       .  A
C906       C1017   1.476   1_556  S
O907       Al909   1.944       .  S
O908        C910   1.259       .  A
O908       Al909   1.865       .  S
Al909       O917   1.929       .  S
Al909       O919   1.935       .  S
Al909       O918   1.795       .  S
C910        O923   1.265       .  A
C910       C1014   1.454       .  S
O911        C921   1.254       .  A
O911       Al913   1.913       .  S
O912        C925   1.265       .  A
O912       Al922   1.883       .  S
Al913       O926   1.921       .  S
Al913       O923   1.906       .  S
Al913       O918   1.785       .  S
O914        C921   1.251       .  A
O914       Al922   1.884       .  S
O915        C924   1.257       .  A
O915       Al922   1.890       .  S
O916       Al922   1.888       .  S
O917        C924   1.267       .  A
O918       Al922   1.778       .  S
O919        C920   1.262       .  A
C920       C1026   1.491       .  S
C921       C1029   1.473       .  S
C924       C1066   1.470       .  S
C925        O926   1.269       .  A
C925       C1021   1.468       .  S
O927        C942   1.269       .  A
O927       Al935   1.930       .  S
C928        O938   1.262       .  A
C928        O929   1.259       .  A
C928       C1010   1.472       .  S
O929       Al931   1.898       .  S
O930        C932   1.259       .  A
O930       Al931   1.905   1_545  S
Al931       O939   1.930       .  S
Al931       O941   1.899       .  S
Al931       O940   1.777       .  S
C932        O945   1.259   1_545  A
O933        C943   1.270       .  A
O933       Al935   1.938       .  S
O934        C947   1.255       .  A
O934       Al944   1.904       .  S
Al935       O948   1.893       .  S
Al935       O945   1.918       .  S
Al935       O940   1.781       .  S
O936        C943   1.260       .  A
O936       Al944   1.870       .  S
O937        C946   1.259       .  A
O937       Al944   1.894       .  S
O938       Al944   1.929       .  S
O939        C946   1.270       .  A
O940       Al944   1.794       .  S
O941        C942   1.264       .  A
C942       C1006   1.481       .  S
C943       C1013   1.472       .  S
C946       C1046   1.478       .  S
C947        O948   1.258       .  A
C947        C997   1.474       .  S
O949        C964   1.271       .  A
O949       Al957   1.931       .  S
C950        O960   1.263       .  A
C950        O951   1.261       .  A
C950       C1022   1.465       .  S
O951       Al953   1.888       .  S
O952        C954   1.248       .  A
O952       Al953   1.873       .  S
Al953       O961   1.887       .  S
Al953       O963   1.892       .  S
Al953       O962   1.780       .  S
C954        O967   1.253       .  A
C954        C998   1.464       .  S
O955        C965   1.269       .  A
O955       Al957   1.925       .  S
O956        C969   1.259       .  A
O956       Al966   1.923       .  S
Al957       O970   1.882       .  S
Al957       O967   1.905       .  S
Al957       O962   1.780       .  S
O958        C965   1.264       .  A
O958       Al966   1.889       .  S
O959        C968   1.270       .  A
O959       Al966   1.931       .  S
O960       Al966   1.928       .  S
O961        C968   1.257       .  A
O962       Al966   1.795       .  S
O963        C964   1.265       .  A
C964       C1018   1.477       .  S
C965        C994   1.473       .  S
C968       C1033   1.469       .  S
C969        O970   1.254       .  A
C969       C1001   1.484       .  S
O971        C986   1.254       .  A
O971       Al979   1.885       .  S
C972        O973   1.262       .  A
O973       Al975   1.926       .  S
O974        C976   1.264       .  A
O974       Al975   1.884       .  S
Al975       O983   1.920       .  S
Al975       O985   1.915       .  S
Al975       O984   1.798       .  S
C976        O989   1.269       .  A
C976        C993   1.474       .  S
O977       Al979   1.913       .  S
O978        C991   1.264       .  A
O978       Al988   1.889       .  S
Al979       O992   1.923       .  S
Al979       O989   1.929       .  S
Al979       O984   1.786       .  S
O980        C987   1.258       .  A
O981        C990   1.262       .  A
O981       Al988   1.907       .  S
O983        C990   1.267       .  A
O984       Al988   1.780       .  S
O985        C986   1.256       .  A
C986       C1030   1.482       .  S
C987       C1025   1.484       .  S
C990       C1038   1.473       .  S
C991        O992   1.268       .  A
C993        C994   1.347       .  D
C993        H995   1.086       .  S
C994        H996   1.086       .  S
C997        C998   1.339       .  D
C997        H999   1.087       .  S
C998       H1000   1.087       .  S
C1001      C1002   1.349       .  D
C1001      H1003   1.086       .  S
C1002      H1004   1.087       .  S
C1005      C1006   1.348       .  D
C1005      H1007   1.086   1_565  S
C1006      H1008   1.087       .  S
C1009      H1011   1.087   1_565  S
C1010      H1012   1.087       .  S
C1013      H1015   1.086       .  S
C1014      H1016   1.087       .  S
C1017      H1019   1.086       .  S
C1018      H1020   1.087       .  S
C1021      C1022   1.342       .  D
C1021      H1023   1.088       .  S
C1022      H1024   1.086       .  S
C1025      C1026   1.354       .  D
C1025      H1027   1.087       .  S
C1026      H1028   1.086       .  S
C1029      C1030   1.346       .  D
C1029      H1031   1.087       .  S
C1030      H1032   1.087       .  S
C1033      C1034   1.335   1_455  D
C1033      H1035   1.088       .  S
C1034      H1036   1.086       .  S
C1037      C1038   1.343       .  D
C1037      H1039   1.086       .  S
C1038      H1040   1.087       .  S
C1041      H1043   1.086       .  S
C1042      H1044   1.087       .  S
C1045      C1046   1.338       .  D
C1045      H1047   1.088       .  S
C1046      H1048   1.086       .  S
C1049      C1050   1.353       .  D
C1049      H1051   1.086       .  S
C1050      H1052   1.087       .  S
C1053      C1054   1.342       .  D
C1053      H1055   1.087       .  S
C1054      H1056   1.087       .  S
C1057      H1059   1.087       .  S
C1058      H1060   1.087       .  S
C1061      C1062   1.350   1_565  D
C1061      H1063   1.086       .  S
C1065      C1066   1.340   1_655  D
C1065      H1067   1.086       .  S
C1066      H1068   1.088   1_455  S
C1069      C1070   1.346       .  D
C1069      H1071   1.086       .  S
C1070      H1072   1.087       .  S
C1073      C1074   1.348       .  D
C1073      H1075   1.086       .  S
C1074      H1076   1.087       .  S
C1077      H1079   1.087       .  S
C1078      H1080   1.086       .  S
C1081      C1082   1.337       .  D
C1081      H1083   1.087       .  S
C1082      H1084   1.087       .  S
C1085      C1086   1.347       .  D
C1085      H1087   1.088       .  S
C1086      H1088   1.087       .  S
