geometry optimzed in LAMMPS
_audit_creation_date              2020-12-01 
_audit_creation_method            'lammps2cif' 
_symmetry_space_group_name_H-M    'P1' 
_symmetry_Int_Tables_number       1 
_symmetry_cell_setting            triclinic 
loop_ 
_symmetry_equiv_pos_as_xyz 
  x,y,z 
_cell_length_a                    30.25582559 
_cell_length_b                    58.54647937669049 
_cell_length_c                    29.289754969929554 
_cell_angle_alpha                 90.48192009812676 
_cell_angle_beta                  89.67975594656261 
_cell_angle_gamma                 89.66447088850904 
loop_ 
_atom_site_label 
_atom_site_type_symbol 
_atom_site_fract_x 
_atom_site_fract_y 
_atom_site_fract_z 
_atom_site_charge 
Zr1        Zr  0.16265680  0.84660015  0.42304738     2.17500
O2          O  0.10257540  0.83694126  0.37122760    -0.52200
O3          O  0.15381794  0.80558712  0.43490544    -0.75400
O4          O  0.18745503  0.84481176  0.34286552    -0.82200
O5          O  0.08492888  0.86841264  0.52040088    -0.83900
O6          O  0.25853110  0.83774893  0.35588278    -0.79500
O7          O  0.08709854  0.85804793  0.44534935    -0.91200
O8          O  0.20498007  0.79335128  0.48545731    -0.77100
O9          O  0.23838081  0.83499704  0.42952394    -0.86600
O10         O  0.17331768  0.83825196  0.50208897    -0.86300
O11         O  0.20735149  0.87833900  0.39680374    -0.73100
O12         O  0.14818439  0.88091410  0.46586308    -0.85200
Zr13       Zr  0.27813324  0.89457835  0.52477759     2.26400
Zr14       Zr  0.28324482  0.86708842  0.40785082     2.06300
Zr15       Zr  0.16101208  0.87290058  0.54468899     2.10000
Zr16       Zr  0.24855343  0.82663951  0.50751612     1.78800
O17         O  0.12409909  0.90530357  0.58152489    -0.94000
O18         O  0.30313181  0.80245204  0.46883177    -0.41800
O19         O  0.23626305  0.86177018  0.54784232    -0.78400
O20         O  0.29401952  0.85854138  0.48645358    -0.97100
O21         O  0.26734911  0.90236530  0.44624469    -0.90400
O22         O  0.20207817  0.90524565  0.51922856    -0.93300
C23         C  0.17193674  0.78986976  0.45892506     1.00500
C24         C  0.06621858  0.86427146  0.48200597     1.13400
C25         C  0.22704875  0.84142193  0.32820853     1.04200
O26         O  0.34581812  0.84938297  0.36825145    -0.95400
O27         O  0.35901998  0.87467892  0.43120453    -0.91200
O28         O  0.35570509  0.89140153  0.50128249    -0.84300
C29         C  0.37728104  0.88339677  0.46672207     1.10800
O30         O  0.13451994  0.91338698  0.38021627    -0.97400
Zr31       Zr  0.19083589  0.91211799  0.43947911     1.88900
O32         O  0.26738557  0.93694020  0.52460316    -0.74100
O33         O  0.29081166  0.89624364  0.34934484    -0.53300
O34         O  0.22253901  0.93284709  0.37552770    -0.98000
O35         O  0.12795481  0.93590761  0.46242833    -0.55200
O36         O  0.21901808  0.94704263  0.46924493    -0.74600
C37         C  0.24564562  0.95196526  0.50133539     0.97800
O38         O  0.33501420  0.91113171  0.57360296    -0.63400
O39         O  0.12467415  0.84749326  0.59841233    -0.58200
O40         O  0.26946282  0.88442833  0.60465032    -0.94900
O41         O  0.19879349  0.87410313  0.61874735    -0.93300
O42         O  0.22724152  0.80877493  0.57896614    -0.93700
O43         O  0.30859578  0.81742794  0.55929085    -0.92400
C44         C  0.23886755  0.87757167  0.63166255     1.16600
H45         H  0.15312329  0.82671487  0.51278239     0.32600
H46         H  0.32352726  0.85315008  0.49274601     0.43400
H47         H  0.19465729  0.91836764  0.53802463     0.36900
H48         H  0.20205577  0.88228142  0.36541873     0.33400
H49         H  0.28763145  0.79609599  0.44192347     0.25200
H50         H  0.31994128  0.89323595  0.33486443     0.31100
H51         H  0.20697469  0.94776849  0.37563323     0.37000
H52         H  0.19452655  0.80862973  0.57856047     0.31500
H53         H  0.10118824  0.85696157  0.61290634     0.30400
H54         H  0.10001483  0.90957351  0.56044220     0.32100
H55         H  0.13418264  0.94061756  0.49428215     0.31000
H56         H  0.31410748  0.83186645  0.57612876     0.35000
H57         H  0.31897271  0.92026814  0.59705388     0.27800
H58         H  0.11343945  0.82388564  0.35254630     0.32000
H59         H  0.13349398  0.92942239  0.36982354     0.34800
H60         H  0.10867083  0.83616308  0.57960548     0.27500
H61         H  0.34829603  0.89823332  0.59051510     0.40300
H62         H  0.35071716  0.83473282  0.38416556     0.30400
H63         H  0.32482905  0.81322856  0.45584720     0.38000
H64         H  0.10294189  0.92516342  0.46518165     0.29900
H65         H  0.26890899  0.89246342  0.32556264     0.29900
H66         H  0.10059716  0.84987395  0.34973395     0.30200
Zr67       Zr  0.66420887  0.86089379  0.41253429     2.17500
O68         O  0.60414938  0.85831786  0.35755083    -0.52200
O69         O  0.65168935  0.81950150  0.40550624    -0.75400
O70         O  0.68956801  0.86848741  0.33402351    -0.82200
O71         O  0.58696421  0.87144399  0.51686736    -0.83900
O72         O  0.76151071  0.86058164  0.34145738    -0.79500
O73         O  0.58862840  0.86837025  0.43947833    -0.91200
O74         O  0.70113833  0.80116096  0.45025719    -0.77100
O75         O  0.73949395  0.84829322  0.41270686    -0.86600
O76         O  0.67449409  0.84331260  0.48509716    -0.86300
O77         O  0.70836819  0.89511566  0.40307090    -0.73100
O78         O  0.65071446  0.88937789  0.47028519    -0.85200
Zr79       Zr  0.78208514  0.89403631  0.53314481     2.26400
Zr80       Zr  0.78403294  0.88227045  0.40703297     2.06300
Zr81       Zr  0.66350756  0.87203151  0.54286317     2.10000
Zr82       Zr  0.74891542  0.83040722  0.48438041     1.78800
O83         O  0.62527525  0.89950451  0.59213715    -0.94000
O84         O  0.79925770  0.80877047  0.43483496    -0.41800
O85         O  0.73876376  0.85974069  0.54136447    -0.78400
O86         O  0.79545147  0.86346519  0.47820589    -0.97100
O87         O  0.77037183  0.91200186  0.46181961    -0.90400
O88         O  0.70662261  0.90588977  0.53450544    -0.93300
C89         C  0.66745839  0.80122493  0.42354517     1.00500
C90         C  0.56776704  0.87062358  0.47779219     1.13400
C91         C  0.72857163  0.86608507  0.31701835     1.04200
O92         O  0.84212169  0.87556125  0.35036199    -0.95400
O93         O  0.86087701  0.88347455  0.43157028    -0.91200
O94         O  0.85914165  0.89212493  0.50711767    -0.84300
C95         C  0.88000988  0.88728274  0.46986151     1.10800
O96         O  0.63699941  0.93778855  0.41143729    -0.97400
Zr97       Zr  0.69398720  0.92290776  0.46191203     1.88900
O98         O  0.77488760  0.93527589  0.55496293    -0.74100
O99         O  0.78917776  0.91856807  0.36743609    -0.53300
O100        O  0.72223969  0.95234061  0.41124254    -0.98000
O101        O  0.63027235  0.93849520  0.50338936    -0.55200
O102        O  0.72365931  0.95221706  0.51004138    -0.74600
C103        C  0.75179299  0.95277379  0.54232897     0.97800
O104        O  0.84282586  0.90233498  0.58522010    -0.63400
O105        O  0.62783898  0.84039748  0.58187449    -0.58200
O106        O  0.77059000  0.87789742  0.60819216    -0.94900
O107        O  0.69924040  0.86727382  0.61740485    -0.93300
O108        O  0.72926674  0.80711972  0.54978926    -0.93700
O109        O  0.81067361  0.81383218  0.52586368    -0.92400
C110        C  0.73894447  0.86980192  0.63230871     1.16600
H111        H  0.65364948  0.83117381  0.49026086     0.32600
H112        H  0.82446237  0.85674492  0.48117233     0.43400
H113        H  0.70030008  0.91611662  0.55970911     0.36900
H114        H  0.70283533  0.90269815  0.37448659     0.33400
H115        H  0.79637302  0.79272336  0.44482236     0.25200
H116        H  0.82128288  0.92160056  0.36521959     0.31100
H117        H  0.71753743  0.94637354  0.37992358     0.37000
H118        H  0.69702178  0.80939839  0.55370243     0.31500
H119        H  0.60403416  0.84760235  0.60040779     0.30400
H120        H  0.61348739  0.89030228  0.61760948     0.32100
H121        H  0.64055648  0.94120962  0.53497649     0.31000
H122        H  0.81768447  0.82532066  0.54971478     0.35000
H123        H  0.82932511  0.91056320  0.61153314     0.27800
H124        H  0.61372036  0.84666115  0.33483132     0.32000
H125        H  0.63386821  0.95418162  0.41955837     0.34800
H126        H  0.61211439  0.83167409  0.55794596     0.27500
H127        H  0.85248945  0.88743396  0.59758993     0.40300
H128        H  0.85106761  0.85939494  0.35429049     0.30400
H129        H  0.78535957  0.80898972  0.40432121     0.38000
H130        H  0.60935140  0.92562291  0.50602431     0.29900
H131        H  0.78011852  0.91506564  0.33572163     0.29900
H132        H  0.60433799  0.87296243  0.34087458     0.30200
Zr133      Zr  0.21129960  0.10499491  0.51713682     2.17500
O134        O  0.14599863  0.09497332  0.47268442    -0.52200
O135        O  0.21680581  0.06292531  0.52360401    -0.75400
O136        O  0.22730305  0.09788325  0.43741691    -0.82200
O137        O  0.13477979  0.13501337  0.60265889    -0.83900
O138        O  0.30032172  0.10354444  0.42463298    -0.79500
O139        O  0.13491654  0.11195143  0.53999687    -0.91200
O140        O  0.26244995  0.05351604  0.58164704    -0.77100
O141        O  0.28326411  0.09054570  0.53108053    -0.86600
O142        O  0.21661194  0.10282268  0.59792069    -0.86300
O143        O  0.25895242  0.13357568  0.48407217    -0.73100
O144        O  0.20215056  0.14371525  0.54486104    -0.85200
Zr145      Zr  0.33271086  0.15295334  0.60976844     2.26400
Zr146      Zr  0.33118349  0.11810774  0.49722056     2.06300
Zr147      Zr  0.20982538  0.14136005  0.62548720     2.10000
Zr148      Zr  0.28901496  0.08889580  0.61232290     1.78800
O149        O  0.16600456  0.17574405  0.63945415    -0.94000
O150        O  0.35188361  0.06267130  0.61038092    -0.41800
O151        O  0.28155526  0.12660835  0.64258762    -0.78400
O152        O  0.34019701  0.11465471  0.57885777    -0.97100
O153        O  0.32519236  0.15599308  0.52877796    -0.90400
O154        O  0.26117695  0.16864179  0.59642080    -0.93300
C155        C  0.23720949  0.04819969  0.54852112     1.00500
C156        C  0.11516317  0.12362144  0.57140398     1.13400
C157        C  0.26115082  0.09821503  0.41104608     1.04200
O158        O  0.37184339  0.08343575  0.47703472    -0.95400
O159        O  0.40748548  0.12413194  0.51885290    -0.91200
O160        O  0.40862309  0.14249825  0.58747329    -0.84300
C161        C  0.42798288  0.13236376  0.55356549     1.10800
O162        O  0.19519581  0.17963291  0.46135567    -0.97400
Zr163      Zr  0.25350344  0.17126041  0.51599983     1.88900
O164        O  0.34469216  0.19326747  0.59264515    -0.74100
O165        O  0.36632500  0.14050501  0.43742118    -0.53300
O166        O  0.28638901  0.18210848  0.44312438    -0.98000
O167        O  0.20303137  0.20177112  0.53997278    -0.55200
O168        O  0.30255184  0.20301004  0.53200029    -0.74600
C169        C  0.33242370  0.20733305  0.56171235     0.97800
O170        O  0.39222360  0.16517363  0.66001731    -0.63400
O171        O  0.17816983  0.12066888  0.68956785    -0.58200
O172        O  0.30939600  0.15644251  0.69125903    -0.94900
O173        O  0.23467619  0.15844102  0.69519717    -0.93300
O174        O  0.24206203  0.07492127  0.67372744    -0.93700
O175        O  0.33326740  0.08630654  0.68120314    -0.92400
C176        C  0.27273454  0.15908436  0.71373777     1.16600
H177        H  0.19390923  0.09306082  0.61028992     0.32600
H178        H  0.36810695  0.10763401  0.58628637     0.43400
H179        H  0.25761655  0.18327472  0.61165947     0.36900
H180        H  0.25310597  0.13593877  0.45219810     0.33400
H181        H  0.34016211  0.04789122  0.62114416     0.25200
H182        H  0.39148888  0.13097771  0.42660351     0.31100
H183        H  0.27648097  0.17055723  0.42060602     0.37000
H184        H  0.25439166  0.05971043  0.68115694     0.31500
H185        H  0.20382981  0.11602153  0.70822612     0.30400
H186        H  0.14697839  0.17199892  0.66593314     0.32100
H187        H  0.21754151  0.20953858  0.56597382     0.31000
H188        H  0.35730973  0.09747941  0.67660043     0.35000
H189        H  0.38201356  0.17973379  0.67401093     0.27800
H190        H  0.15244942  0.07981928  0.45882577     0.32000
H191        H  0.20231253  0.19485260  0.44887472     0.34800
H192        H  0.16277703  0.13245608  0.70829720     0.27500
H193        H  0.39270539  0.15413085  0.68542793     0.40300
H194        H  0.38847834  0.08738338  0.44900732     0.30400
H195        H  0.35810963  0.06017432  0.57749029     0.38000
H196        H  0.17751182  0.19380277  0.55371640     0.29900
H197        H  0.34532829  0.14045807  0.41162610     0.29900
H198        H  0.14509890  0.10569765  0.44671834     0.30200
Zr199      Zr  0.83014567  0.15692953  0.51651819     2.17500
O200        O  0.89126132  0.17119456  0.47040682    -0.52200
O201        O  0.83921304  0.19681105  0.53734623    -0.75400
O202        O  0.80708833  0.16421465  0.43661824    -0.82200
O203        O  0.90594948  0.12867571  0.60545369    -0.83900
O204        O  0.73333552  0.15814590  0.43102691    -0.79500
O205        O  0.90575283  0.14471019  0.53502876    -0.91200
O206        O  0.78933272  0.20712650  0.59177060    -0.77100
O207        O  0.75523528  0.16861858  0.52678549    -0.86600
O208        O  0.81955110  0.16173324  0.59724600    -0.86300
O209        O  0.78692529  0.12657611  0.48385784    -0.73100
O210        O  0.84373280  0.12083704  0.55161590    -0.85200
Zr211      Zr  0.71452828  0.10462526  0.60885654     2.26400
Zr212      Zr  0.71171067  0.13756011  0.49794015     2.06300
Zr213      Zr  0.83077600  0.12532768  0.63193113     2.10000
Zr214      Zr  0.74475238  0.17315360  0.60679049     1.78800
O215        O  0.87381042  0.09371534  0.66252718    -0.94000
O216        O  0.69059749  0.19922065  0.57404034    -0.41800
O217        O  0.75531563  0.13624345  0.64099855    -0.78400
O218        O  0.69992107  0.14243869  0.57830069    -0.97100
O219        O  0.72567214  0.10054397  0.52873754    -0.90400
O220        O  0.79028322  0.09446141  0.59985367    -0.93300
C221        C  0.82212425  0.21143735  0.56514272     1.00500
C222        C  0.92561383  0.13551742  0.56916408     1.13400
C223        C  0.77047174  0.16412948  0.41403684     1.04200
O224        O  0.65666711  0.16418538  0.46903356    -0.95400
O225        O  0.63648065  0.12784545  0.51709666    -0.91200
O226        O  0.63778145  0.10898438  0.58449464    -0.84300
C227        C  0.61738708  0.11792691  0.55059218     1.10800
O228        O  0.85041181  0.08947862  0.45256562    -0.97400
Zr229      Zr  0.80181859  0.09081461  0.51923367     1.88900
O230        O  0.72649898  0.06221400  0.60261968    -0.74100
O231        O  0.69578693  0.11039557  0.43689952    -0.53300
O232        O  0.76771911  0.06924592  0.45736109    -0.98000
O233        O  0.86972478  0.07009973  0.53674962    -0.55200
O234        O  0.77864981  0.05503290  0.54847797    -0.74600
C235        C  0.75161975  0.04841528  0.57909189     0.97800
O236        O  0.65251610  0.08782734  0.65012392    -0.63400
O237        O  0.86296542  0.15231841  0.68599472    -0.58200
O238        O  0.72543096  0.10670057  0.69097914    -0.94900
O239        O  0.79779183  0.11401079  0.70482052    -0.93300
O240        O  0.76680818  0.18657339  0.68219912    -0.93700
O241        O  0.68487200  0.18239471  0.65986808    -0.92400
C242        C  0.75833989  0.10911914  0.71797328     1.16600
H243        H  0.83999221  0.17255116  0.61028037     0.32600
H244        H  0.67012407  0.14744994  0.58500108     0.43400
H245        H  0.79850230  0.08095207  0.61647655     0.36900
H246        H  0.79258650  0.12442553  0.45165196     0.33400
H247        H  0.69414062  0.21367122  0.59139198     0.25200
H248        H  0.67314217  0.11813896  0.41818301     0.31100
H249        H  0.73578493  0.06890148  0.46484880     0.37000
H250        H  0.76410628  0.17306618  0.70213023     0.31500
H251        H  0.84104154  0.15374735  0.71108601     0.30400
H252        H  0.88307814  0.09894856  0.69322688     0.32100
H253        H  0.86439345  0.06326271  0.56707219     0.31000
H254        H  0.67007442  0.16762953  0.66542653     0.35000
H255        H  0.66550090  0.07543528  0.66863339     0.27800
H256        H  0.88009429  0.18523741  0.45566843     0.32000
H257        H  0.85778244  0.07312974  0.44781358     0.34800
H258        H  0.88814577  0.14397487  0.69958673     0.27500
H259        H  0.64277321  0.09952057  0.67271518     0.40300
H260        H  0.65259042  0.17558479  0.49386680     0.30400
H261        H  0.70196645  0.20273990  0.54314323     0.38000
H262        H  0.89200667  0.08208764  0.54250940     0.29900
H263        H  0.72262676  0.11021595  0.41740375     0.29900
H264        H  0.89505144  0.15998115  0.44521990     0.30200
Zr265      Zr  0.22404180  0.89064032  0.04552214     2.17500
O266        O  0.16129036  0.89925182  0.09569513    -0.52200
O267        O  0.23293681  0.93139161  0.06910855    -0.75400
O268        O  0.23824851  0.87819857  0.12279230    -0.82200
O269        O  0.14704348  0.87721628  0.94536230    -0.83900
O270        O  0.30929667  0.86576227  0.12829745    -0.79500
O271        O  0.14705574  0.88576626  0.02097610    -0.91200
O272        O  0.29252819  0.94590241  0.03256478    -0.77100
O273        O  0.29946034  0.90164823  0.04453257    -0.86600
O274        O  0.23479280  0.90934338  0.97441313    -0.86300
O275        O  0.26501994  0.85489903  0.05074348    -0.73100
O276        O  0.21015809  0.86193940  0.98808920    -0.85200
Zr277      Zr  0.34135521  0.85784462  0.92155744     2.26400
Zr278      Zr  0.34066433  0.86682377  0.05114382     2.06300
Zr279      Zr  0.22193868  0.88059639  0.91759608     2.10000
Zr280      Zr  0.31084428  0.91960065  0.97257033     1.78800
O281        O  0.16665353  0.86433154  0.86681352    -0.94000
O282        O  0.38041023  0.93555066  0.99916072    -0.41800
O283        O  0.29757707  0.89217169  0.91316053    -0.78400
O284        O  0.35422400  0.88605031  0.98011506    -0.97100
O285        O  0.32861471  0.83891979  0.99221044    -0.90400
O286        O  0.26579783  0.84631204  0.92075787    -0.93300
C287        C  0.26165301  0.94729936  0.06225585     1.00500
C288        C  0.12727290  0.88009288  0.98377600     1.13400
C289        C  0.27067982  0.86984683  0.14527848     1.04200
O290        O  0.38332149  0.89219012  0.09999127    -0.95400
O291        O  0.41704171  0.86242970  0.02656439    -0.91200
O292        O  0.41765199  0.85661661  0.94941612    -0.84300
C293        C  0.43701501  0.85955379  0.98808908     1.10800
O294        O  0.19166691  0.81177804  0.03387055    -0.97400
Zr295      Zr  0.25333557  0.82759511  0.99092480     1.88900
O296        O  0.34981700  0.81664232  0.91001254    -0.74100
O297        O  0.36981072  0.83225827  0.08580780    -0.53300
O298        O  0.27470145  0.79991435  0.04855237    -0.98000
O299        O  0.19664966  0.81017733  0.94335147    -0.55200
O300        O  0.29703358  0.79856718  0.95113468    -0.74600
C301        C  0.33072429  0.79846916  0.92433944     0.97800
O302        O  0.40496490  0.86412986  0.87171704    -0.63400
O303        O  0.19931130  0.91736889  0.88695305    -0.58200
O304        O  0.31912166  0.86136880  0.84109986    -0.94900
O305        O  0.24707070  0.87266407  0.84164136    -0.93300
O306        O  0.27429201  0.95192545  0.93663861    -0.93700
O307        O  0.35593523  0.93452971  0.91057133    -0.92400
C308        C  0.28260377  0.86655480  0.82114025     1.16600
H309        H  0.21529971  0.92236184  0.97186440     0.32600
H310        H  0.38386673  0.89196905  0.97819175     0.43400
H311        H  0.25998992  0.83627512  0.89524598     0.36900
H312        H  0.25727627  0.84595313  0.07705946     0.33400
H313        H  0.37579292  0.95230309  0.99925545     0.25200
H314        H  0.38323246  0.83749406  0.11478269     0.31100
H315        H  0.30577533  0.79586406  0.04124018     0.37000
H316        H  0.26746258  0.94657626  0.90533332     0.31500
H317        H  0.20857967  0.91680455  0.85449952     0.30400
H318        H  0.15747304  0.87703157  0.84679198     0.32100
H319        H  0.21198182  0.80532705  0.91491459     0.31000
H320        H  0.36997598  0.92086620  0.89642389     0.35000
H321        H  0.40108210  0.85400464  0.84481966     0.27800
H322        H  0.17261877  0.91003964  0.11899990     0.32000
H323        H  0.19080938  0.82064524  0.06280604     0.34800
H324        H  0.16662534  0.91670983  0.88611923     0.27500
H325        H  0.40112376  0.87983961  0.86006636     0.40300
H326        H  0.40120593  0.88184684  0.11917145     0.30400
H327        H  0.38166474  0.93143618  0.03186029     0.38000
H328        H  0.17747621  0.82307784  0.93409165     0.29900
H329        H  0.34329481  0.82366736  0.09538277     0.29900
H330        H  0.15542366  0.88503581  0.11272482     0.30200
Zr331      Zr  0.72147139  0.89528270  0.02678097     2.17500
O332        O  0.65859043  0.90926056  0.07183116    -0.52200
O333        O  0.72615521  0.93756535  0.02552534    -0.75400
O334        O  0.73826259  0.89503052  0.10808919    -0.82200
O335        O  0.64489032  0.86467625  0.94149109    -0.83900
O336        O  0.81161054  0.88768587  0.11672109    -0.79500
O337        O  0.64548635  0.88398717  0.00900376    -0.91200
O338        O  0.76856027  0.94890489  0.96600375    -0.77100
O339        O  0.79438328  0.90894452  0.01487066    -0.86600
O340        O  0.72745652  0.90232165  0.94683142    -0.86300
O341        O  0.76841667  0.86414172  0.05155443    -0.73100
O342        O  0.71088240  0.85892505  0.98923771    -0.85200
Zr343      Zr  0.84149586  0.85054251  0.92174222     2.26400
Zr344      Zr  0.84156524  0.87877858  0.04062619     2.06300
Zr345      Zr  0.71871718  0.86591447  0.90981689     2.10000
Zr346      Zr  0.80114118  0.91516346  0.93455220     1.78800
O347        O  0.66619778  0.84220225  0.86851349    -0.94000
O348        O  0.86102677  0.94110245  0.95428825    -0.41800
O349        O  0.79164514  0.87969599  0.89590829    -0.78400
O350        O  0.85121521  0.88668435  0.96059039    -0.97100
O351        O  0.83287082  0.84303098  0.00127017    -0.90400
O352        O  0.76852961  0.83595664  0.93226068    -0.93300
C353        C  0.74431091  0.95308929  0.00075406     1.00500
C354        C  0.62575643  0.87247179  0.97754859     1.13400
C355        C  0.77256043  0.89167955  0.13283683     1.04200
O356        O  0.88141151  0.91244385  0.06649071    -0.95400
O357        O  0.91792256  0.87211345  0.01878594    -0.91200
O358        O  0.91792189  0.85835969  0.94585882    -0.84300
C359        C  0.93773667  0.86574374  0.98192477     1.10800
O360        O  0.69900638  0.81688778  0.06025182    -0.97400
Zr361      Zr  0.75992972  0.82900203  0.01141178     1.88900
O362        O  0.85105643  0.80932512  0.93189680    -0.74100
O363        O  0.87925815  0.85323336  0.09315257    -0.53300
O364        O  0.78542870  0.81534202  0.08521746    -0.98000
O365        O  0.70958119  0.80086471  0.97891037    -0.55200
O366        O  0.81050499  0.79840766  0.99310129    -0.74600
C367        C  0.83947914  0.79460158  0.96196329     0.97800
O368        O  0.89446603  0.84015287  0.86179879    -0.63400
O369        O  0.69532529  0.89520220  0.85641653    -0.58200
O370        O  0.81769659  0.85430148  0.84140475    -0.94900
O371        O  0.74602935  0.84496629  0.84458825    -0.93300
O372        O  0.76139734  0.93118930  0.87004181    -0.93700
O373        O  0.85249867  0.92234417  0.87186481    -0.92400
C374        C  0.78039616  0.85030913  0.82187276     1.16600
H375        H  0.70569079  0.91337053  0.93727802     0.32600
H376        H  0.87944901  0.89357236  0.95470200     0.43400
H377        H  0.76440526  0.82212068  0.91467630     0.36900
H378        H  0.76263305  0.85902792  0.08212736     0.33400
H379        H  0.85166360  0.95625518  0.94294362     0.25200
H380        H  0.89882822  0.86325581  0.11131543     0.31100
H381        H  0.81785789  0.81371549  0.08174199     0.37000
H382        H  0.76742893  0.94777669  0.87131553     0.31500
H383        H  0.70388056  0.88909019  0.82598588     0.30400
H384        H  0.65588099  0.85168684  0.84280748     0.32100
H385        H  0.72853638  0.78788036  0.96904015     0.31000
H386        H  0.84846601  0.93861384  0.86380948     0.35000
H387        H  0.90707447  0.85481831  0.85149572     0.27800
H388        H  0.66910362  0.92320831  0.08761913     0.32000
H389        H  0.70589607  0.80093471  0.06885675     0.34800
H390        H  0.66263079  0.89457062  0.85689434     0.27500
H391        H  0.91920860  0.83222040  0.87704665     0.40300
H392        H  0.89951471  0.90702529  0.09233847     0.30400
H393        H  0.85947698  0.94259297  0.98795886     0.38000
H394        H  0.69868079  0.80762445  0.95019963     0.29900
H395        H  0.85622397  0.84829618  0.11498922     0.29900
H396        H  0.65425714  0.89801194  0.09650966     0.30200
Zr397      Zr  0.28852237  0.09901435  0.11397542     2.17500
O398        O  0.34629321  0.08446729  0.16388572    -0.52200
O399        O  0.28260453  0.05659240  0.10693738    -0.75400
O400        O  0.26457693  0.09540335  0.19232792    -0.82200
O401        O  0.37395752  0.12460386  0.03357305    -0.83900
O402        O  0.19182722  0.10398014  0.19773115    -0.79500
O403        O  0.36684031  0.10887462  0.10354926    -0.91200
O404        O  0.22717044  0.04865831  0.05778859    -0.77100
O405        O  0.21594507  0.08712599  0.09537705    -0.86600
O406        O  0.28834059  0.09391884  0.03340979    -0.86300
O407        O  0.24136257  0.13035026  0.13973652    -0.73100
O408        O  0.30291241  0.13646193  0.08362244    -0.85200
Zr409      Zr  0.17857922  0.14834398  0.00656773     2.26400
Zr410      Zr  0.16868691  0.11733401  0.12154872     2.06300
Zr411      Zr  0.30137665  0.13111123  0.00333784     2.10000
Zr412      Zr  0.21525359  0.08259551  0.01438428     1.78800
O413        O  0.35221984  0.16236459  0.98914886    -0.94000
O414        O  0.14625472  0.06139327  0.00968094    -0.41800
O415        O  0.22926150  0.11897143  0.98153367    -0.78400
O416        O  0.16461718  0.11136562  0.03976157    -0.97100
O417        O  0.18071330  0.15395663  0.08746873    -0.90400
O418        O  0.25111779  0.16122801  0.02478052    -0.93300
C419        C  0.25517644  0.04262819  0.08785047     1.00500
C420        C  0.39005849  0.11791483  0.07155999     1.13400
C421        C  0.22885032  0.09768601  0.21553509     1.04200
O422        O  0.12315867  0.08429662  0.13853623    -0.95400
O423        O  0.09525720  0.12611746  0.09444784    -0.91200
O424        O  0.09932937  0.14095409  0.02302761    -0.84300
C425        C  0.07728448  0.13318818  0.05749029     1.10800
O426        O  0.31030929  0.17698400  0.15951723    -0.97400
Zr427      Zr  0.25279121  0.16684711  0.10509957     1.88900
O428        O  0.16421824  0.18866499  0.02521548    -0.74100
O429        O  0.13131395  0.14254784  0.17611959    -0.53300
O430        O  0.22143093  0.17732716  0.17931343    -0.98000
O431        O  0.30529368  0.19585553  0.08076776    -0.55200
O432        O  0.20483411  0.19929508  0.08643876    -0.74600
C433        C  0.17574934  0.20341696  0.05568571     0.97800
O434        O  0.13269302  0.15788487  0.94123453    -0.63400
O435        O  0.33497611  0.10565494  0.94660628    -0.58200
O436        O  0.21062701  0.15404173  0.92877276    -0.94900
O437        O  0.28473016  0.14809597  0.93182129    -0.93300
O438        O  0.26525479  0.06067240  0.96502070    -0.93700
O439        O  0.18794207  0.07862112  0.93671063    -0.92400
C440        C  0.24971372  0.15363243  0.91037855     1.16600
H441        H  0.31061163  0.08299765  0.02391643     0.32600
H442        H  0.13639470  0.10522574  0.03094094     0.43400
H443        H  0.25771748  0.17508162  0.00854389     0.36900
H444        H  0.24476314  0.13368572  0.17185273     0.33400
H445        H  0.15526928  0.04543746  0.00282662     0.25200
H446        H  0.11088402  0.13250599  0.19306501     0.31100
H447        H  0.19852549  0.18898727  0.17293166     0.37000
H448        H  0.26793447  0.04547075  0.97931189     0.31500
H449        H  0.31114515  0.10252581  0.92442727     0.30400
H450        H  0.36885697  0.15773881  0.96133952     0.32100
H451        H  0.29208913  0.20306565  0.05360242     0.31000
H452        H  0.16329930  0.08977516  0.93482030     0.35000
H453        H  0.11489768  0.14410086  0.93488106     0.27800
H454        H  0.33440871  0.07038262  0.17769355     0.32000
H455        H  0.30216446  0.19234045  0.17138792     0.34800
H456        H  0.35618935  0.11533538  0.92981538     0.27500
H457        H  0.11130526  0.16947480  0.95267625     0.40300
H458        H  0.10910459  0.08795957  0.16833326     0.30400
H459        H  0.13495251  0.06100848  0.04145394     0.38000
H460        H  0.33094934  0.18711020  0.06864274     0.29900
H461        H  0.15425956  0.14676251  0.19856921     0.29900
H462        H  0.34852404  0.09553851  0.18953300     0.30200
Zr463      Zr  0.67681621  0.15598642  0.12377761     2.17500
O464        O  0.61945693  0.16783396  0.17796321    -0.52200
O465        O  0.66245180  0.19581488  0.10262140    -0.75400
O466        O  0.70891143  0.16367224  0.20076613    -0.82200
O467        O  0.59219600  0.13009843  0.04136032    -0.83900
O468        O  0.78325040  0.15997093  0.19483354    -0.79500
O469        O  0.59979222  0.14361807  0.11409267    -0.91200
O470        O  0.70289558  0.20468691  0.03985388    -0.77100
O471        O  0.74914124  0.16855334  0.10347897    -0.86600
O472        O  0.67769685  0.15945642  0.04223767    -0.86300
O473        O  0.72619061  0.12645228  0.15002345    -0.73100
O474        O  0.66132510  0.11911322  0.09115326    -0.85200
Zr475      Zr  0.78507115  0.10447906  0.01678902     2.26400
Zr476      Zr  0.79828817  0.13843379  0.12639352     2.06300
Zr477      Zr  0.66460823  0.12258875  0.00964882     2.10000
Zr478      Zr  0.74982062  0.17187431  0.02264896     1.78800
O479        O  0.62364199  0.08806115  0.99116383    -0.94000
O480        O  0.80312437  0.20033252  0.04754707    -0.41800
O481        O  0.73730423  0.13469204  0.99058694    -0.78400
O482        O  0.80048952  0.14257305  0.04532086    -0.97100
O483        O  0.78367008  0.10090470  0.09764349    -0.90400
O484        O  0.71179602  0.09287398  0.03580599    -0.93300
C485        C  0.67335203  0.20938706  0.07015781     1.00500
C486        C  0.57655759  0.13635775  0.08024009     1.13400
C487        C  0.74829319  0.16475776  0.21776711     1.04200
O488        O  0.85588701  0.16535746  0.14750206    -0.95400
O489        O  0.87189628  0.13027971  0.09806031    -0.91200
O490        O  0.86432916  0.11083493  0.03094598    -0.84300
C491        C  0.88769287  0.12050155  0.06220772     1.10800
O492        O  0.66800905  0.08761841  0.18825540    -0.97400
Zr493      Zr  0.71006563  0.08998349  0.11720645     1.88900
O494        O  0.77755336  0.06255624  0.02527873    -0.74100
O495        O  0.82165594  0.11112906  0.18384647    -0.53300
O496        O  0.75225044  0.07116702  0.17687881    -0.98000
O497        O  0.64268357  0.06777203  0.10821178    -0.55200
O498        O  0.73463919  0.05405008  0.08649482    -0.74600
C499        C  0.75799366  0.04824944  0.05184930     0.97800
O500        O  0.83701380  0.08454569  0.96595867    -0.63400
O501        O  0.62091617  0.14371375  0.95427877    -0.58200
O502        O  0.76389981  0.10696010  0.93669539    -0.94900
O503        O  0.69013231  0.11334640  0.93208301    -0.93300
O504        O  0.71941969  0.18278888  0.94913771    -0.93700
O505        O  0.80585366  0.18074024  0.96557072    -0.92400
C506        C  0.72814843  0.10933184  0.91366808     1.16600
H507        H  0.65482462  0.16964444  0.03160115     0.32600
H508        H  0.82863905  0.14811561  0.03471925     0.43400
H509        H  0.70302667  0.07897226  0.02050907     0.36900
H510        H  0.72494015  0.12442809  0.18272228     0.33400
H511        H  0.78868234  0.20838894  0.07352798     0.25200
H512        H  0.85271997  0.10738227  0.17590510     0.31100
H513        H  0.78206959  0.06865074  0.16363004     0.37000
H514        H  0.69731013  0.17088952  0.94210165     0.31500
H515        H  0.59554495  0.13368282  0.94732860     0.30400
H516        H  0.60708824  0.08444604  0.01940081     0.32100
H517        H  0.64545186  0.06041077  0.07777077     0.31000
H518        H  0.80802654  0.16678802  0.94631546     0.35000
H519        H  0.81915959  0.07351780  0.94817387     0.27800
H520        H  0.62669072  0.18377581  0.18647796     0.32000
H521        H  0.66603237  0.07112053  0.19512019     0.34800
H522        H  0.60785815  0.15685911  0.97110103     0.27500
H523        H  0.84676257  0.09599533  0.94339400     0.40300
H524        H  0.84317971  0.18062518  0.14121768     0.30400
H525        H  0.82727439  0.19137897  0.06157069     0.38000
H526        H  0.61876134  0.07922590  0.10471717     0.29900
H527        H  0.82359883  0.12007264  0.21258094     0.29900
H528        H  0.62459166  0.15882255  0.20589228     0.30200
Zr529      Zr  0.52375535  0.39703589  0.47241765     2.17500
O530        O  0.58470792  0.40921407  0.42343092    -0.52200
O531        O  0.51777852  0.43960469  0.47102157    -0.75400
O532        O  0.51020278  0.39167589  0.39116364    -0.82200
O533        O  0.60279156  0.37433873  0.56478099    -0.83900
O534        O  0.43959286  0.37988841  0.38162602    -0.79500
O535        O  0.60033759  0.38891524  0.49336886    -0.91200
O536        O  0.46993466  0.45196456  0.52592723    -0.77100
O537        O  0.44907228  0.40948701  0.47916887    -0.86600
O538        O  0.51414264  0.40768480  0.55048332    -0.86300
O539        O  0.48123557  0.36329736  0.45336658    -0.73100
O540        O  0.53733176  0.36271218  0.51545486    -0.85200
Zr541      Zr  0.40512084  0.35501534  0.58190622     2.26400
Zr542      Zr  0.40664624  0.37679462  0.45794021     2.06300
Zr543      Zr  0.52742450  0.37356166  0.59275511     2.10000
Zr544      Zr  0.43837064  0.41895031  0.55816918     1.78800
O545        O  0.57031098  0.34244539  0.62536890    -0.94000
O546        O  0.37670685  0.44139681  0.52910385    -0.41800
O547        O  0.45255922  0.38609375  0.60246084    -0.78400
O548        O  0.39220200  0.38836401  0.53588216    -0.97100
O549        O  0.41688517  0.34350112  0.50425658    -0.90400
O550        O  0.48006453  0.34181466  0.57647159    -0.93300
C551        C  0.49710635  0.45554185  0.49358908     1.00500
C552        C  0.62133493  0.38058719  0.52749788     1.13400
C553        C  0.47832360  0.38465075  0.36611783     1.04200
O554        O  0.36840293  0.40996531  0.42731220    -0.95400
O555        O  0.33095688  0.36888598  0.47766721    -0.91200
O556        O  0.32843690  0.35880281  0.55263143    -0.84300
C557        C  0.30989801  0.36371368  0.51417954     1.10800
O558        O  0.55372397  0.31931555  0.45104993    -0.97400
Zr559      Zr  0.49119479  0.33045162  0.49939581     1.88900
O560        O  0.39748540  0.31346417  0.57875004    -0.74100
O561        O  0.36959373  0.35090292  0.40519993    -0.53300
O562        O  0.46645247  0.31233087  0.42887616    -0.98000
O563        O  0.54164224  0.30369555  0.53603698    -0.55200
O564        O  0.44446038  0.29951974  0.52454281    -0.74600
C565        C  0.41354089  0.29709133  0.55419145     0.97800
O566        O  0.34990760  0.35028508  0.64203041    -0.63400
O567        O  0.56224994  0.40242100  0.64095146    -0.58200
O568        O  0.42631737  0.35925265  0.66369459    -0.94900
O569        O  0.49972696  0.36749746  0.66788118    -0.93300
O570        O  0.46454874  0.44236659  0.62148145    -0.93700
O571        O  0.38404091  0.42468562  0.61890299    -0.92400
C572        C  0.46226056  0.36335599  0.68612800     1.16600
H573        H  0.53418444  0.41975410  0.55901968     0.32600
H574        H  0.36293381  0.39468621  0.53957634     0.43400
H575        H  0.48518547  0.32943312  0.59746800     0.36900
H576        H  0.48937451  0.35649238  0.42445912     0.33400
H577        H  0.38129945  0.45698197  0.54151573     0.25200
H578        H  0.35883438  0.36072267  0.38019412     0.31100
H579        H  0.43418434  0.31043788  0.43295311     0.37000
H580        H  0.49668056  0.43926364  0.62319029     0.31500
H581        H  0.57238354  0.39405387  0.66823409     0.30400
H582        H  0.58529694  0.34932079  0.65207111     0.32100
H583        H  0.52685104  0.29908345  0.56471306     0.31000
H584        H  0.37039513  0.40950733  0.62312597     0.35000
H585        H  0.33151349  0.36432521  0.64140118     0.27800
H586        H  0.57214466  0.42063902  0.40232460     0.32000
H587        H  0.55061768  0.30267500  0.44575881     0.34800
H588        H  0.58984840  0.40663350  0.62485969     0.27500
H589        H  0.33024670  0.33793554  0.63118966     0.40300
H590        H  0.36417438  0.40634049  0.39455696     0.30400
H591        H  0.38264483  0.44279514  0.49597412     0.38000
H592        H  0.56689269  0.31314612  0.54601683     0.29900
H593        H  0.39352717  0.34157221  0.39117068     0.29900
H594        H  0.59256572  0.39589528  0.40385337     0.30200
Zr595      Zr  0.02239597  0.39284618  0.45253286     2.17500
O596        O  0.08586874  0.39861929  0.40220364    -0.52200
O597        O  0.01359692  0.43409811  0.43423138    -0.75400
O598        O  0.00325581  0.38598867  0.37377501    -0.82200
O599        O  0.10173948  0.37455597  0.54756720    -0.83900
O600        O  0.93044267  0.37716767  0.36840514    -0.79500
O601        O  0.10009294  0.38615245  0.47384782    -0.91200
O602        O  0.96069388  0.44964948  0.47993646    -0.77100
O603        O  0.94879308  0.40672733  0.45984884    -0.86600
O604        O  0.01684703  0.40832273  0.52776511    -0.86300
O605        O  0.97669451  0.35934637  0.44049385    -0.73100
O606        O  0.03522599  0.36108223  0.50236970    -0.85200
Zr607      Zr  0.90689111  0.35818387  0.57367399     2.26400
Zr608      Zr  0.90286226  0.37425029  0.44723852     2.06300
Zr609      Zr  0.02764440  0.37645084  0.57730075     2.10000
Zr610      Zr  0.94229673  0.42131576  0.53575072     1.78800
O611        O  0.08507739  0.35789304  0.62201948    -0.94000
O612        O  0.87340457  0.44093418  0.51754058    -0.41800
O613        O  0.95403797  0.39037911  0.58728740    -0.78400
O614        O  0.89389049  0.38989230  0.52326029    -0.97100
O615        O  0.91446306  0.34293404  0.49823486    -0.90400
O616        O  0.98047679  0.34398322  0.56763951    -0.93300
C617        C  0.98798234  0.45083940  0.44655167     1.00500
C618        C  0.12059378  0.37899261  0.50953214     1.13400
C619        C  0.96884143  0.38086033  0.35074437     1.04200
O620        O  0.85869433  0.40479108  0.41412111    -0.95400
O621        O  0.82807321  0.36788881  0.47382043    -0.91200
O622        O  0.82966511  0.36061578  0.55002978    -0.84300
C623        C  0.80919712  0.36412637  0.51233559     1.10800
O624        O  0.04785941  0.31470638  0.44389209    -0.97400
Zr625      Zr  0.98805054  0.32876321  0.49292210     1.88900
O626        O  0.89420567  0.31702679  0.57621889    -0.74100
O627        O  0.86595474  0.34517492  0.40168035    -0.53300
O628        O  0.96020597  0.30409468  0.43212012    -0.98000
O629        O  0.04440283  0.30789760  0.53509973    -0.55200
O630        O  0.94302556  0.29942947  0.52840260    -0.74600
C631        C  0.91076568  0.29906527  0.55707539     0.97800
O632        O  0.85657939  0.36116492  0.63886089    -0.63400
O633        O  0.04312261  0.41171304  0.61878598    -0.58200
O634        O  0.93325521  0.35907619  0.65281270    -0.94900
O635        O  0.00803192  0.36267285  0.65104415    -0.93300
O636        O  0.98594251  0.44872675  0.57910563    -0.93700
O637        O  0.90335850  0.43527808  0.60352397    -0.92400
C638        C  0.97148865  0.35964647  0.67189346     1.16600
H639        H  0.03828005  0.42030444  0.53234614     0.32600
H640        H  0.86475010  0.39630148  0.52764792     0.43400
H641        H  0.98600266  0.33240505  0.59025095     0.36900
H642        H  0.98198807  0.35192007  0.41147349     0.33400
H643        H  0.87892820  0.45722393  0.52469361     0.25200
H644        H  0.85294709  0.35356495  0.37574433     0.31100
H645        H  0.96954562  0.31127681  0.40317458     0.37000
H646        H  0.97572215  0.46388953  0.56862750     0.31500
H647        H  0.02123583  0.41203204  0.64405975     0.30400
H648        H  0.09634516  0.36981855  0.64302458     0.32100
H649        H  0.02869027  0.30075244  0.56095432     0.31000
H650        H  0.88191693  0.42309503  0.61075025     0.35000
H651        H  0.83961099  0.37547113  0.63429917     0.27800
H652        H  0.07793898  0.41182126  0.38297967     0.32000
H653        H  0.04807937  0.29790438  0.44752962     0.34800
H654        H  0.07183051  0.40903410  0.63389529     0.27500
H655        H  0.83488032  0.34872495  0.63480027     0.40300
H656        H  0.83062268  0.39746577  0.40505151     0.30400
H657        H  0.87165268  0.44027790  0.48380324     0.38000
H658        H  0.06277680  0.31990514  0.54939660     0.29900
H659        H  0.89021991  0.33595436  0.38797130     0.29900
H660        H  0.08663998  0.38536040  0.38096423     0.30200
Zr661      Zr  0.96683898  0.60295143  0.38540724     2.17500
O662        O  0.90698569  0.59037155  0.33574232    -0.52200
O663        O  0.96800006  0.56022404  0.38789384    -0.75400
O664        O  0.98319635  0.60865394  0.30448191    -0.82200
O665        O  0.88602838  0.62128289  0.48035222    -0.83900
O666        O  0.05369800  0.62118619  0.29640299    -0.79500
O667        O  0.88984455  0.61113221  0.40559828    -0.91200
O668        O  0.03372913  0.54984543  0.41744102    -0.77100
O669        O  0.04201125  0.59107233  0.39067227    -0.86600
O670        O  0.97570908  0.59142521  0.46259186    -0.86300
O671        O  0.00953604  0.63698689  0.36930617    -0.73100
O672        O  0.95145968  0.63682974  0.43079464    -0.85200
Zr673      Zr  0.08243693  0.64463780  0.49820390     2.26400
Zr674      Zr  0.08489122  0.62422191  0.37343049     2.06300
Zr675      Zr  0.96120554  0.62507415  0.50732777     2.10000
Zr676      Zr  0.05142291  0.58024746  0.46848569     1.78800
O677        O  0.91113892  0.65307359  0.54187104    -0.94000
O678        O  0.12092843  0.56083999  0.45026830    -0.41800
O679        O  0.03621552  0.61267046  0.51581089    -0.78400
O680        O  0.09736113  0.61158307  0.45051185    -0.97100
O681        O  0.07179365  0.65686746  0.42164471    -0.90400
O682        O  0.00743120  0.65761701  0.49364704    -0.93300
C683        C  0.99712054  0.54495207  0.39874592     1.00500
C684        C  0.86809315  0.61693283  0.44171840     1.13400
C685        C  0.01543994  0.61611756  0.28013416     1.04200
O686        O  0.12647023  0.59269514  0.33912102    -0.95400
O687        O  0.16032076  0.63249660  0.39671917    -0.91200
O688        O  0.15977104  0.63986067  0.47334438    -0.84300
C689        C  0.17975447  0.63641820  0.43488447     1.10800
O690        O  0.93498362  0.68239662  0.37144787    -0.97400
Zr691      Zr  0.99734765  0.66952520  0.41716672     1.88900
O692        O  0.09507848  0.68580631  0.49020693    -0.74100
O693        O  0.12033875  0.65258010  0.32529198    -0.53300
O694        O  0.01667417  0.68856456  0.34616572    -0.98000
O695        O  0.94834317  0.69519945  0.46001408    -0.55200
O696        O  0.04847514  0.69980448  0.43699240    -0.74600
C697        C  0.08101656  0.70200054  0.46455434     0.97800
O698        O  0.13313451  0.65200989  0.56102950    -0.63400
O699        O  0.93379530  0.59571700  0.55859764    -0.58200
O700        O  0.06004365  0.63946449  0.57898854    -0.94900
O701        O  0.98539592  0.63480828  0.58211659    -0.93300
O702        O  0.01422846  0.55268903  0.51714127    -0.93700
O703        O  0.09299218  0.57081251  0.53681264    -0.92400
C704        C  0.02307349  0.63718852  0.60075925     1.16600
H705        H  0.95584171  0.57916799  0.47019799     0.32600
H706        H  0.12653086  0.60518208  0.45426516     0.43400
H707        H  0.00177718  0.66973528  0.51555153     0.36900
H708        H  0.00195150  0.64379385  0.34059933     0.33400
H709        H  0.11463035  0.54437072  0.45386672     0.25200
H710        H  0.13674011  0.64358174  0.30190267     0.31100
H711        H  0.04936787  0.68900817  0.34590800     0.37000
H712        H  0.02281699  0.53753094  0.50460483     0.31500
H713        H  0.91444813  0.58592407  0.53972061     0.30400
H714        H  0.89247275  0.64416728  0.56306111     0.32100
H715        H  0.96715940  0.70266030  0.48324611     0.31000
H716        H  0.11776448  0.58179223  0.53719965     0.35000
H717        H  0.15209648  0.63820319  0.56284193     0.27800
H718        H  0.92032601  0.57893685  0.31463898     0.32000
H719        H  0.93605842  0.69930531  0.37207818     0.34800
H720        H  0.95994111  0.58605852  0.56510514     0.27500
H721        H  0.15305416  0.66419072  0.55012551     0.40300
H722        H  0.14978745  0.60011809  0.32072356     0.30400
H723        H  0.12479784  0.56285448  0.41695889     0.38000
H724        H  0.92863611  0.68503362  0.47753895     0.29900
H725        H  0.09598498  0.65994093  0.30833173     0.29900
H726        H  0.89956846  0.60359933  0.31628217     0.30200
Zr727      Zr  0.58441537  0.65481452  0.37156716     2.17500
O728        O  0.64184945  0.66398342  0.31605247    -0.52200
O729        O  0.59588792  0.69607693  0.38349013    -0.75400
O730        O  0.55830340  0.65307490  0.29123965    -0.82200
O731        O  0.65983858  0.63558038  0.46893752    -0.83900
O732        O  0.48722109  0.66119125  0.30253223    -0.79500
O733        O  0.66019416  0.64285262  0.39292831    -0.91200
O734        O  0.54836451  0.70902115  0.43819994    -0.77100
O735        O  0.50932777  0.66745139  0.38057744    -0.86600
O736        O  0.57518513  0.66390187  0.45115125    -0.86300
O737        O  0.53839522  0.62281368  0.34842438    -0.73100
O738        O  0.59754773  0.62113172  0.41570049    -0.85200
Zr739      Zr  0.46753263  0.60935215  0.47815814     2.26400
Zr740      Zr  0.46346572  0.63526975  0.36061591     2.06300
Zr741      Zr  0.58492119  0.62982576  0.49491394     2.10000
Zr742      Zr  0.50121980  0.67673411  0.45928330     1.78800
O743        O  0.62260230  0.59676682  0.52692883    -0.94000
O744        O  0.44791691  0.70238306  0.42416678    -0.41800
O745        O  0.51033375  0.64202508  0.50111897    -0.78400
O746        O  0.45405471  0.64526703  0.43935399    -0.97100
O747        O  0.47799179  0.60029291  0.39938398    -0.90400
O748        O  0.54284110  0.59740955  0.47116938    -0.93300
C749        C  0.58078388  0.71192813  0.41022641     1.00500
C750        C  0.68006517  0.63802579  0.43066087     1.13400
C751        C  0.51872822  0.65546505  0.27587427     1.04200
O752        O  0.40183019  0.65152158  0.31849556    -0.95400
O753        O  0.38769750  0.62981226  0.38612905    -0.91200
O754        O  0.38998437  0.61477430  0.45712041    -0.84300
C755        C  0.36885012  0.62258093  0.42257814     1.10800
O756        O  0.61119322  0.58368790  0.33323499    -0.97400
Zr757      Zr  0.55427534  0.58968304  0.39147753     1.88900
O758        O  0.47463816  0.56690071  0.47548992    -0.74100
O759        O  0.45563275  0.60601352  0.30163783    -0.53300
O760        O  0.52938273  0.56756421  0.32572063    -0.98000
O761        O  0.61826638  0.56847529  0.41893511    -0.55200
O762        O  0.52057907  0.55573315  0.41795513    -0.74600
C763        C  0.49402230  0.55145207  0.45052885     0.97800
O764        O  0.41016638  0.59232942  0.52562353    -0.63400
O765        O  0.62522671  0.65488409  0.54664040    -0.58200
O766        O  0.47803582  0.61762854  0.55954598    -0.94900
O767        O  0.54824553  0.62972029  0.57051545    -0.93300
O768        O  0.52443852  0.68940827  0.53483507    -0.93700
O769        O  0.44169847  0.69109362  0.50806757    -0.92400
C770        C  0.50912158  0.62497487  0.58543567     1.16600
H771        H  0.59630200  0.67501258  0.46171132     0.32600
H772        H  0.42512494  0.65149581  0.44610200     0.43400
H773        H  0.54940633  0.58438907  0.48996234     0.36900
H774        H  0.54247019  0.61756357  0.31729823     0.33400
H775        H  0.46581265  0.71272243  0.40502725     0.25200
H776        H  0.42946737  0.59714401  0.31121646     0.31100
H777        H  0.54579988  0.55290521  0.32732823     0.37000
H778        H  0.54700960  0.70123645  0.52917412     0.31500
H779        H  0.60258280  0.66528147  0.55994929     0.30400
H780        H  0.65036151  0.60290519  0.53973343     0.32100
H781        H  0.60837134  0.56139188  0.44777329     0.31000
H782        H  0.43184522  0.67758078  0.52542131     0.35000
H783        H  0.42554518  0.58105957  0.54498536     0.27800
H784        H  0.62983158  0.67665345  0.29759846     0.32000
H785        H  0.61333754  0.59837920  0.31690049     0.34800
H786        H  0.63431276  0.64499539  0.57223109     0.27500
H787        H  0.39971690  0.60446335  0.54690276     0.40300
H788        H  0.39923639  0.66745564  0.32986715     0.30400
H789        H  0.43189172  0.69267996  0.40198202     0.38000
H790        H  0.63959040  0.58031932  0.42857897     0.29900
H791        H  0.44568066  0.61441941  0.27431890     0.29900
H792        H  0.64344776  0.65070110  0.29491986     0.30200
Zr793      Zr  0.08715092  0.35075444  0.07686756     2.17500
O794        O  0.14817164  0.34357606  0.12902537    -0.52200
O795        O  0.09714637  0.30876831  0.07433199    -0.75400
O796        O  0.06258243  0.35512575  0.15659301    -0.82200
O797        O  0.16404679  0.37074978  0.97942306    -0.83900
O798        O  0.99283048  0.34590824  0.14381835    -0.79500
O799        O  0.16157117  0.36230092  0.05508713    -0.91200
O800        O  0.04968813  0.29369199  0.02306925    -0.77100
O801        O  0.01220984  0.33868085  0.07264601    -0.86600
O802        O  0.07775654  0.33702444  0.00027424    -0.86300
O803        O  0.04288707  0.38473400  0.09399689    -0.73100
O804        O  0.09874402  0.38217164  0.02636541    -0.85200
Zr805      Zr  0.96941367  0.39043394  0.96439476     2.26400
Zr806      Zr  0.96772569  0.37222805  0.08717196     2.06300
Zr807      Zr  0.08863563  0.36861107  0.95009303     2.10000
Zr808      Zr  0.00292633  0.32491571  0.99695037     1.78800
O809        O  0.12529773  0.39713957  0.90338205    -0.94000
O810        O  0.95252793  0.30183735  0.04227220    -0.41800
O811        O  0.01341384  0.35686059  0.94780669    -0.78400
O812        O  0.95611066  0.35750015  0.01175152    -0.97100
O813        O  0.98006927  0.40478400  0.03961730    -0.90400
O814        O  0.04496151  0.40185330  0.96613570    -0.93300
C815        C  0.08140961  0.29166767  0.05165661     1.00500
C816        C  0.18224743  0.36854866  0.01885132     1.13400
C817        C  0.02308832  0.35190719  0.17111196     1.04200
O818        O  0.91060870  0.35923395  0.13963026    -0.95400
O819        O  0.89111681  0.37659737  0.06539946    -0.91200
O820        O  0.89227153  0.38795225  0.99161700    -0.84300
C821        C  0.87173571  0.38203995  0.02826191     1.10800
O822        O  0.10809257  0.42914711  0.09936945    -0.97400
Zr823      Zr  0.05608490  0.41559602  0.04206744     1.88900
O824        O  0.97776708  0.43178984  0.94875280    -0.74100
O825        O  0.96319592  0.40478662  0.13933919    -0.53300
O826        O  0.02205844  0.44232340  0.09609440    -0.98000
O827        O  0.12376378  0.43269529  0.01270996    -0.55200
O828        O  0.03109372  0.44639379  0.99418397    -0.74600
C829        C  0.00268100  0.44833403  0.96220909     0.97800
O830        O  0.91405598  0.40130198  0.90818476    -0.63400
O831        O  0.12840069  0.33801359  0.91037112    -0.58200
O832        O  0.98137734  0.37828970  0.88639265    -0.94900
O833        O  0.05285070  0.36744051  0.87478566    -0.93300
O834        O  0.02236599  0.30543514  0.92575597    -0.93700
O835        O  0.94136649  0.31009947  0.95264390    -0.92400
C836        C  0.01333902  0.37164842  0.86060250     1.16600
H837        H  0.09868922  0.32509856  0.99230120     0.32600
H838        H  0.92697579  0.35130440  0.00795357     0.43400
H839        H  0.05207269  0.41295692  0.94302073     0.36900
H840        H  0.04805299  0.39085781  0.12416303     0.33400
H841        H  0.95504794  0.28625045  0.02911936     0.25200
H842        H  0.93285417  0.41084279  0.13531391     0.31100
H843        H  0.03614601  0.45719062  0.08966469     0.37000
H844        H  0.02754027  0.28931952  0.93431684     0.31500
H845        H  0.10543186  0.32664010  0.90279320     0.30400
H846        H  0.14624987  0.38831327  0.88395544     0.32100
H847        H  0.11747353  0.43612302  0.98034183     0.31000
H848        H  0.93391736  0.32252088  0.93122283     0.35000
H849        H  0.89505744  0.38779906  0.90355004     0.27800
H850        H  0.13869809  0.33048769  0.14781527     0.32000
H851        H  0.11031469  0.41665300  0.12180939     0.34800
H852        H  0.13689948  0.34460001  0.88059646     0.27500
H853        H  0.89480487  0.41297759  0.92290220     0.40300
H854        H  0.90389456  0.34345933  0.12940884     0.30400
H855        H  0.96645796  0.30064096  0.07267241     0.38000
H856        H  0.14561160  0.42005056  0.01125071     0.29900
H857        H  0.96290243  0.39800872  0.17017562     0.29900
H858        H  0.14838361  0.35678039  0.15037657     0.30200
Zr859      Zr  0.58543469  0.35398999  0.08652250     2.17500
O860        O  0.64696219  0.34630819  0.13774318    -0.52200
O861        O  0.59477543  0.31267231  0.08209675    -0.75400
O862        O  0.56089673  0.35563605  0.16694728    -0.82200
O863        O  0.66246534  0.37381643  0.98922582    -0.83900
O864        O  0.48947045  0.34799503  0.15710945    -0.79500
O865        O  0.66098256  0.36428817  0.06444440    -0.91200
O866        O  0.54967993  0.29879302  0.02702079    -0.77100
O867        O  0.51112899  0.34085271  0.07866981    -0.86600
O868        O  0.57777339  0.34365463  0.00757467    -0.86300
O869        O  0.53877030  0.38593064  0.10916871    -0.73100
O870        O  0.59789137  0.38713581  0.04092221    -0.85200
Zr871      Zr  0.46847333  0.39775701  0.97932015     2.26400
Zr872      Zr  0.46424397  0.37307178  0.09766087     2.06300
Zr873      Zr  0.58696065  0.37730723  0.96203451     2.10000
Zr874      Zr  0.50407258  0.33060699  0.00058575     1.78800
O875        O  0.62275981  0.40996016  0.92686029    -0.94000
O876        O  0.44864571  0.30540635  0.03323250    -0.41800
O877        O  0.51287934  0.36501382  0.95814101    -0.78400
O878        O  0.45616596  0.36220699  0.01950897    -0.97100
O879        O  0.47732108  0.40777533  0.05733836    -0.90400
O880        O  0.54329319  0.40975638  0.98475989    -0.93300
C881        C  0.57992856  0.29632346  0.05725324     1.00500
C882        C  0.68140155  0.37022169  0.02771824     1.13400
C883        C  0.52168493  0.35296533  0.18311396     1.04200
O884        O  0.40432956  0.35521403  0.13985515    -0.95400
O885        O  0.38813768  0.37753779  0.07207233    -0.91200
O886        O  0.39142169  0.39210603  0.00063903    -0.84300
C887        C  0.37004770  0.38413574  0.03482913     1.10800
O888        O  0.61187110  0.42707323  0.11805417    -0.97400
Zr889      Zr  0.55308763  0.41864331  0.06408903     1.88900
O890        O  0.47378811  0.44022446  0.97949011    -0.74100
O891        O  0.45284518  0.40487058  0.15074156    -0.53300
O892        O  0.52602574  0.43856019  0.13214844    -0.98000
O893        O  0.61099484  0.44264454  0.03219503    -0.55200
O894        O  0.51556637  0.45188719  0.03920439    -0.74600
C895        C  0.49107682  0.45585553  0.00507605     0.97800
O896        O  0.41683649  0.41385545  0.92412227    -0.63400
O897        O  0.62611492  0.35235473  0.90813708    -0.58200
O898        O  0.47764420  0.38822895  0.89943399    -0.94900
O899        O  0.54763183  0.37537830  0.88777044    -0.93300
O900        O  0.53294547  0.31348864  0.93040322    -0.93700
O901        O  0.44604252  0.31871294  0.94842231    -0.92400
C902        C  0.50807410  0.37990230  0.87362987     1.16600
H903        H  0.59913478  0.33215712  0.99848568     0.32600
H904        H  0.42769424  0.35571785  0.01326275     0.43400
H905        H  0.54929557  0.42262125  0.96535364     0.36900
H906        H  0.54304376  0.39121077  0.14017926     0.33400
H907        H  0.46543229  0.29444107  0.05206745     0.25200
H908        H  0.42316038  0.40233218  0.16406520     0.31100
H909        H  0.53699958  0.45438838  0.12928888     0.37000
H910        H  0.53216232  0.29680855  0.93563591     0.31500
H911        H  0.65479932  0.35988121  0.90238108     0.30400
H912        H  0.64846126  0.40340481  0.91017484     0.32100
H913        H  0.59744021  0.45039247  0.00576869     0.31000
H914        H  0.43552010  0.33310291  0.93453702     0.35000
H915        H  0.39695650  0.40128330  0.91486682     0.27800
H916        H  0.63727608  0.33344763  0.15704252     0.32000
H917        H  0.61270163  0.41378355  0.13872135     0.34800
H918        H  0.63375130  0.33848125  0.92554510     0.27500
H919        H  0.39771046  0.42460714  0.94162435     0.40300
H920        H  0.40269504  0.33951415  0.12712641     0.30400
H921        H  0.43240474  0.31507391  0.05566000     0.38000
H922        H  0.63247685  0.43174543  0.01841455     0.29900
H923        H  0.47355807  0.40218053  0.17617449     0.29900
H924        H  0.64808202  0.35964773  0.15871199     0.30200
Zr925      Zr  0.52466319  0.60995280  0.99053444     2.17500
O926        O  0.58492107  0.59654711  0.03859888    -0.52200
O927        O  0.51672489  0.56759974  0.99388765    -0.75400
O928        O  0.50740218  0.61501841  0.07183735    -0.82200
O929        O  0.60551066  0.63158788  0.89883978    -0.83900
O930        O  0.43439499  0.62369968  0.07865514    -0.79500
O931        O  0.60212378  0.61681952  0.97011999    -0.91200
O932        O  0.48349232  0.55508438  0.92932441    -0.77100
O933        O  0.45217241  0.59586796  0.97857739    -0.86600
O934        O  0.52065563  0.60052609  0.91136161    -0.86300
O935        O  0.47793473  0.64247608  0.00944278    -0.73100
O936        O  0.53722143  0.64512800  0.94950010    -0.85200
Zr937      Zr  0.40752388  0.65097613  0.87726689     2.26400
Zr938      Zr  0.40530662  0.62726233  0.00023981     2.06300
Zr939      Zr  0.53128378  0.63537256  0.87066826     2.10000
Zr940      Zr  0.44767388  0.58738912  0.89853375     1.78800
O941        O  0.57549381  0.66635860  0.83988832    -0.94000
O942        O  0.38885489  0.56171973  0.92213709    -0.41800
O943        O  0.45870148  0.62122566  0.85611154    -0.78400
O944        O  0.39727245  0.61651601  0.92094403    -0.97100
O945        O  0.41409452  0.66138654  0.95610578    -0.90400
O946        O  0.48035813  0.66601756  0.88713615    -0.93300
C947        C  0.50286890  0.55158565  0.96697480     1.00500
C948        C  0.62364115  0.62455813  0.93558209     1.13400
C949        C  0.47306552  0.62026244  0.09592256     1.04200
O950        O  0.36895531  0.59303784  0.02804530    -0.95400
O951        O  0.33016915  0.63387749  0.97519493    -0.91200
O952        O  0.33033011  0.64262233  0.89974184    -0.84300
C953        C  0.31022953  0.63734943  0.93722805     1.10800
O954        O  0.53460339  0.69107705  0.02491517    -0.97400
Zr955      Zr  0.48655872  0.67599793  0.96541108     1.88900
O956        O  0.39578259  0.69249582  0.88319166    -0.74100
O957        O  0.36211453  0.65162180  0.05171422    -0.53300
O958        O  0.44764072  0.69305662  0.03060356    -0.98000
O959        O  0.54753698  0.69913750  0.93769852    -0.55200
O960        O  0.44478668  0.70732501  0.93347499    -0.74600
C961        C  0.41277349  0.70934992  0.90536286     0.97800
O962        O  0.35000989  0.65732050  0.82060585    -0.63400
O963        O  0.56708587  0.60764404  0.81977167    -0.58200
O964        O  0.43361095  0.64726648  0.79644007    -0.94900
O965        O  0.50854561  0.64390536  0.79467064    -0.93300
O966        O  0.48567469  0.56885825  0.83458873    -0.93700
O967        O  0.39745794  0.57779230  0.83671485    -0.92400
C968        C  0.47115565  0.64588064  0.77508398     1.16600
H969        H  0.54248506  0.58904161  0.90326338     0.32600
H970        H  0.36943020  0.60905491  0.91562710     0.43400
H971        H  0.48557447  0.67891139  0.86754262     0.36900
H972        H  0.48332232  0.64921457  0.03892734     0.33400
H973        H  0.39874683  0.54632774  0.91203405     0.25200
H974        H  0.34934195  0.64106867  0.07443278     0.31100
H975        H  0.44156327  0.70908625  0.02202480     0.37000
H976        H  0.48712766  0.58067363  0.81063850     0.31500
H977        H  0.58760978  0.61678119  0.80097106     0.30400
H978        H  0.59876559  0.65873227  0.82127142     0.32100
H979        H  0.53351403  0.71153215  0.92010869     0.31000
H980        H  0.38582662  0.59270674  0.82634538     0.35000
H981        H  0.36087225  0.66972687  0.80077559     0.27800
H982        H  0.57233266  0.58409044  0.05715427     0.32000
H983        H  0.53007780  0.70784894  0.02473839     0.34800
H984        H  0.58673020  0.59839510  0.83933246     0.27500
H985        H  0.34983858  0.64347265  0.80094429     0.40300
H986        H  0.34575895  0.58975133  0.00524073     0.30400
H987        H  0.39085504  0.56131818  0.95584184     0.38000
H988        H  0.56248513  0.68947644  0.91440025     0.29900
H989        H  0.38413379  0.66063817  0.06892852     0.29900
H990        H  0.59089672  0.60905095  0.06064983     0.30200
Zr991      Zr  0.91050666  0.64709970  0.99983631     2.17500
O992        O  0.85208816  0.65732730  0.05418914    -0.52200
O993        O  0.90421290  0.68853029  0.99167241    -0.75400
O994        O  0.93508599  0.64517243  0.08020122    -0.82200
O995        O  0.83174703  0.63030408  0.90232522    -0.83900
O996        O  0.00713733  0.65137712  0.07060903    -0.79500
O997        O  0.83398191  0.63882329  0.97839005    -0.91200
O998        O  0.94602692  0.69952813  0.93150967    -0.77100
O999        O  0.98533366  0.65894429  0.98939165    -0.86600
O1000       O  0.91790655  0.65572697  0.92027968    -0.86300
O1001       O  0.95547809  0.61465022  0.02168892    -0.73100
O1002       O  0.89435650  0.61344139  0.95576195    -0.85200
Zr1003     Zr  0.02465276  0.59973334  0.89146731     2.26400
Zr1004     Zr  0.03039320  0.62641776  0.00885723     2.06300
Zr1005     Zr  0.90610150  0.62158339  0.87647450     2.10000
Zr1006     Zr  0.99228784  0.66728915  0.91046062     1.78800
O1007       O  0.86695571  0.58827833  0.84740139    -0.94000
O1008       O  0.04502962  0.69340355  0.94511586    -0.41800
O1009       O  0.98126013  0.63243342  0.86955030    -0.78400
O1010       O  0.03897387  0.63581353  0.93012161    -0.97100
O1011       O  0.01452651  0.59141281  0.96996423    -0.90400
O1012       O  0.94887736  0.58906880  0.89829758    -0.93300
C1013       C  0.91700573  0.70347032  0.96263950     1.00500
C1014       C  0.81327587  0.63468445  0.94092763     1.13400
C1015       C  0.97429167  0.64708900  0.09654784     1.04200
O1016       O  0.09045478  0.64416943  0.05097962    -0.95400
O1017       O  0.10577110  0.62084410  0.98129265    -0.91200
O1018       O  0.10273460  0.60642642  0.90914947    -0.84300
C1019       C  0.12405539  0.61417338  0.94378603     1.10800
O1020       O  0.89476116  0.57541750  0.04712449    -0.97400
Zr1021     Zr  0.93814394  0.58163320  0.97784506     1.88900
O1022       O  0.01918365  0.55717308  0.89712737    -0.74100
O1023       O  0.04271457  0.59512204  0.06165305    -0.53300
O1024       O  0.97731626  0.55653022  0.03006539    -0.98000
O1025       O  0.86772842  0.56367440  0.95969438    -0.55200
O1026       O  0.95910331  0.54760024  0.93914707    -0.74600
C1027       C  0.99240198  0.54234456  0.91442910     0.97800
O1028       O  0.08191664  0.58193658  0.84384523    -0.63400
O1029       O  0.86759722  0.64458719  0.81990435    -0.58200
O1030       O  0.01184000  0.60715183  0.81094194    -0.94900
O1031       O  0.94274404  0.62161795  0.80134740    -0.93300
O1032       O  0.96816937  0.68019523  0.83573557    -0.93700
O1033       O  0.05120047  0.68106118  0.86107429    -0.92400
C1034       C  0.98118047  0.61559391  0.78600951     1.16600
H1035       H  0.89671444  0.66707619  0.91070045     0.32600
H1036       H  0.06733631  0.64222753  0.92284046     0.43400
H1037       H  0.94195290  0.57626294  0.87870905     0.36900
H1038       H  0.95156778  0.60961040  0.05273811     0.33400
H1039       H  0.02786542  0.70199012  0.96854254     0.25200
H1040       H  0.07368600  0.59694901  0.07172661     0.31100
H1041       H  0.95956377  0.54239157  0.03134750     0.37000
H1042       H  0.94052494  0.67175309  0.82980939     0.31500
H1043       H  0.84003679  0.63623992  0.81298555     0.30400
H1044       H  0.83954917  0.59449000  0.83385192     0.32100
H1045       H  0.87047783  0.55898806  0.92724715     0.31000
H1046       H  0.05722529  0.66824295  0.83961302     0.35000
H1047       H  0.06649364  0.57034897  0.82511531     0.27800
H1048       H  0.86393696  0.67008403  0.07275056     0.32000
H1049       H  0.88524629  0.55927474  0.04582283     0.34800
H1050       H  0.85771809  0.65854844  0.83640638     0.27500
H1051       H  0.09147885  0.59372165  0.82188570     0.40300
H1052       H  0.09662142  0.65850384  0.03445238     0.30400
H1053       H  0.06505674  0.68346417  0.96285794     0.38000
H1054       H  0.84575726  0.57627899  0.95963858     0.29900
H1055       H  0.02467349  0.59894488  0.08896016     0.29900
H1056       H  0.84989432  0.64429247  0.07539915     0.30200
C1057       C  0.67249097  0.62664709  0.93811502    -0.07000
C1058       C  0.69279947  0.64387317  0.91226227    -0.18100
C1059       C  0.73841360  0.64729268  0.91329168     0.10200
C1060       C  0.76477354  0.63373687  0.94214754    -0.06900
C1061       C  0.74485764  0.61656938  0.96808936    -0.18100
C1062       C  0.69944044  0.61233752  0.96514695     0.10300
S1063       S  0.76050229  0.66902204  0.87629942    -0.33100
S1064       S  0.67926589  0.58701690  0.99262090    -0.33100
H1065       H  0.65072423  0.58090711  0.95679226     0.28300
H1066       H  0.79977848  0.67291131  0.90021679     0.28300
H1067       H  0.67299773  0.65488465  0.89083925     0.18900
H1068       H  0.76534449  0.60536126  0.98842773     0.18900
C1069       C  0.17216353  0.61784449  0.93933876    -0.07000
C1070       C  0.18811271  0.63124895  0.90324972    -0.18100
C1071       C  0.23214580  0.63884047  0.90206174     0.10200
C1072       C  0.26169489  0.63237233  0.93718293    -0.06900
C1073       C  0.24515412  0.61869293  0.97286630    -0.18100
C1074       C  0.20135735  0.61137327  0.97414121     0.10300
S1075       S  0.24721065  0.65774410  0.85641707    -0.33100
S1076       S  0.18490622  0.59327580  0.02074137    -0.33100
H1077       H  0.15337246  0.58085693  0.99578655     0.28300
H1078       H  0.27168534  0.67256495  0.88452201     0.28300
H1079       H  0.16546470  0.63688531  0.87703837     0.18900
H1080       H  0.26672721  0.61300827  0.99992999     0.18900
C1081       C  0.48699463  0.48031154  0.99371629    -0.07000
C1082       C  0.50637407  0.48749006  0.95282473    -0.18100
C1083       C  0.51649923  0.51049206  0.94567024     0.10200
C1084       C  0.50579217  0.52716641  0.97940575    -0.06900
C1085       C  0.48618485  0.52002530  0.02034273    -0.18100
C1086       C  0.47661709  0.49688607  0.02775197     0.10300
S1087       S  0.54424767  0.51750534  0.89294547    -0.33100
S1088       S  0.45027854  0.48953211  0.08103541    -0.33100
H1089       H  0.43162695  0.46894526  0.06553524     0.28300
H1090       H  0.56570111  0.53700886  0.91010848     0.28300
H1091       H  0.51636357  0.47489338  0.92740133     0.18900
H1092       H  0.47618923  0.53263948  0.04571811     0.18900
C1093       C  0.82290704  0.37968449  0.02719762    -0.07000
C1094       C  0.79784687  0.38642134  0.06564846    -0.18100
C1095       C  0.75174886  0.38387163  0.06681873     0.10200
C1096       C  0.72992924  0.37361849  0.02928622    -0.06900
C1097       C  0.75504934  0.36680634  0.99110579    -0.18100
C1098       C  0.80091296  0.36940438  0.98985588     0.10300
S1099       S  0.72268010  0.39530648  0.11588286    -0.33100
S1100       S  0.82938147  0.35761324  0.94085906    -0.37900
H1101       H  0.86195982  0.34658779  0.96671289     0.28300
H1102       H  0.68723036  0.40415092  0.09056041     0.28300
H1103       H  0.81420043  0.39421754  0.09463848     0.18900
H1104       H  0.73889916  0.35872269  0.96229652     0.18900
C1105       C  0.22981284  0.37396494  0.02302242    -0.07000
C1106       C  0.25789312  0.36859108  0.98622873    -0.18100
C1107       C  0.30351298  0.37166537  0.98927991     0.10200
C1108       C  0.32196633  0.38086625  0.02974024    -0.06900
C1109       C  0.29394979  0.38650938  0.06636765    -0.18100
C1110       C  0.24820072  0.38365300  0.06317500     0.10300
S1111       S  0.33654506  0.36159154  0.94183551    -0.33100
S1112       S  0.21530006  0.39410752  0.11045479    -0.33100
H1113       H  0.18160886  0.40288255  0.08270707     0.28300
H1114       H  0.36411077  0.34835284  0.96969963     0.28300
H1115       H  0.24443774  0.36101526  0.95544044     0.18900
H1116       H  0.30770949  0.39378463  0.09729675     0.18900
C1117       C  0.00075313  0.47104975  0.93905557    -0.07000
C1118       C  0.03986906  0.48406324  0.93649515    -0.18100
C1119       C  0.03967486  0.50680236  0.92157802     0.10200
C1120       C  0.99944965  0.51724406  0.90928565    -0.06900
C1121       C  0.96130724  0.50351290  0.90702997    -0.18100
C1122       C  0.96125345  0.48078499  0.92235699     0.10300
S1123       S  0.09074839  0.52236821  0.92394304    -0.33100
S1124       S  0.90951303  0.46560566  0.92522363    -0.33100
H1125       H  0.88165021  0.48451974  0.91781281     0.28300
H1126       H  0.08506361  0.53215525  0.88064185     0.28300
H1127       H  0.07082754  0.47673585  0.94790393     0.18900
H1128       H  0.93034705  0.51138471  0.89718404     0.18900
C1129       C  0.48063341  0.62651927  0.14488587    -0.07000
C1130       C  0.45760565  0.64545726  0.16320488    -0.18100
C1131       C  0.47037959  0.65594973  0.20436635     0.10200
C1132       C  0.50747386  0.64754911  0.22863600    -0.06900
C1133       C  0.52957301  0.62815101  0.21099302    -0.18100
C1134       C  0.51599327  0.61731756  0.17046812     0.10300
S1135       S  0.43870623  0.68056251  0.22280117    -0.33100
S1136       S  0.54349736  0.59099021  0.15477894    -0.33100
H1137       H  0.50690843  0.58147622  0.13222698     0.28300
H1138       H  0.47486169  0.69224369  0.24162997     0.28300
H1139       H  0.43070110  0.65299047  0.14413695     0.18900
H1140       H  0.55640573  0.62059038  0.23012539     0.18900
C1141       C  0.49771292  0.63030331  0.63430070    -0.07000
C1142       C  0.51711011  0.64949131  0.65513630    -0.18100
C1143       C  0.50529850  0.65654731  0.69951800     0.10200
C1144       C  0.47315503  0.64430947  0.72452216    -0.06900
C1145       C  0.45240616  0.62574357  0.70329541    -0.18100
C1146       C  0.46501174  0.61828146  0.65934098     0.10300
S1147       S  0.53305196  0.68118072  0.72289024    -0.33100
S1148       S  0.44161147  0.59177661  0.63986001    -0.33100
H1149       H  0.48054834  0.58397181  0.61819215     0.28300
H1150       H  0.49964229  0.68709783  0.75451019     0.28300
H1151       H  0.54145852  0.65929564  0.63654674     0.18900
H1152       H  0.42917373  0.61562006  0.72273499     0.18900
C1153       C  0.81961282  0.62039117  0.43785767    -0.07000
C1154       C  0.80281003  0.63033008  0.39794623    -0.18100
C1155       C  0.75842276  0.63727845  0.39475653     0.10200
C1156       C  0.72882684  0.63316744  0.43145842    -0.06900
C1157       C  0.74599529  0.62273550  0.47096690    -0.18100
C1158       C  0.79038728  0.61647650  0.47464530     0.10300
S1159       S  0.74328963  0.65281644  0.34448360    -0.33100
S1160       S  0.80705976  0.60313949  0.52716959    -0.33100
H1161       H  0.83572347  0.58730761  0.50579212     0.28300
H1162       H  0.72180524  0.67026558  0.36942617     0.28300
H1163       H  0.82508322  0.63400261  0.36987323     0.18900
H1164       H  0.72463053  0.61903687  0.49972094     0.18900
C1165       C  0.32006995  0.62548308  0.42616982    -0.07000
C1166       C  0.30047543  0.64431278  0.40422838    -0.18100
C1167       C  0.25491430  0.64871960  0.40762885     0.10200
C1168       C  0.22836560  0.63453324  0.43477315    -0.06900
C1169       C  0.24777969  0.61608995  0.45759233    -0.18100
C1170       C  0.29289774  0.61105321  0.45267140     0.10300
S1171       S  0.23083150  0.67260183  0.37780293    -0.33100
S1172       S  0.31263779  0.58500106  0.47802391    -0.33100
H1173       H  0.34168166  0.57934673  0.44190937     0.28300
H1174       H  0.26989777  0.67991134  0.35629277     0.28300
H1175       H  0.32098056  0.65571111  0.38448875     0.18900
H1176       H  0.22707348  0.60469555  0.47722451     0.18900
C1177       C  0.98387790  0.64126441  0.14526640    -0.07000
C1178       C  0.02724884  0.63407047  0.15585402    -0.18100
C1179       C  0.03789691  0.62430954  0.19789231     0.10200
C1180       C  0.00521273  0.62253816  0.23215656    -0.06900
C1181       C  0.96204526  0.63023265  0.22224266    -0.18100
C1182       C  0.95110545  0.63953916  0.17971118     0.10300
S1183       S  0.09309352  0.61306098  0.20426152    -0.33100
S1184       S  0.89524979  0.64967286  0.17272788    -0.33100
H1185       H  0.90764479  0.66925303  0.14837778     0.28300
H1186       H  0.08001410  0.59412013  0.23024572     0.28300
H1187       H  0.05304960  0.63478113  0.13021867     0.18900
H1188       H  0.93665366  0.62976846  0.24845512     0.18900
C1189       C  0.02199406  0.63516427  0.65074277    -0.07000
C1190       C  0.03738769  0.61462151  0.66921322    -0.18100
C1191       C  0.02262415  0.60713587  0.71195859     0.10200
C1192       C  0.99309132  0.62092082  0.73808412    -0.06900
C1193       C  0.97899803  0.64189309  0.72010654    -0.18100
C1194       C  0.99298714  0.64906324  0.67692894     0.10300
S1195       S  0.03942773  0.57887785  0.72896343    -0.33100
S1196       S  0.97129607  0.67572644  0.65590046    -0.33100
H1197       H  0.00609790  0.67981073  0.62501387     0.28300
H1198       H  0.99998502  0.57380357  0.75234757     0.28300
H1199       H  0.05776455  0.60329448  0.64839683     0.18900
H1200       H  0.95724650  0.65293522  0.73999547     0.18900
C1201       C  0.97660521  0.37615010  0.30174303    -0.07000
C1202       C  0.95981572  0.35580663  0.28330561    -0.18100
C1203       C  0.97627435  0.34675023  0.24216112     0.10200
C1204       C  0.01003407  0.35835599  0.21822902    -0.06900
C1205       C  0.02576947  0.37908740  0.23600113    -0.18100
C1206       C  0.00883052  0.38830960  0.27674370     0.10300
S1207       S  0.95447475  0.31967063  0.22338635    -0.33100
S1208       S  0.02880205  0.41599712  0.29440278    -0.33100
H1209       H  0.99123431  0.42211571  0.32038840     0.28300
H1210       H  0.99400527  0.31190227  0.20287038     0.28300
H1211       H  0.93583178  0.34606250  0.30254368     0.18900
H1212       H  0.04999717  0.38874941  0.21693044     0.18900
C1213       C  0.00228510  0.36819703  0.81192782    -0.07000
C1214       C  0.01804093  0.34873593  0.78855209    -0.18100
C1215       C  0.00499208  0.34410000  0.74355311     0.10200
C1216       C  0.97492293  0.35896242  0.72171979    -0.06900
C1217       C  0.95809298  0.37788106  0.74554769    -0.18100
C1218       C  0.97249559  0.38308764  0.78952305     0.10300
S1219       S  0.02843863  0.31928074  0.71530736    -0.33100
S1220       S  0.95530108  0.41035580  0.81282371    -0.33100
H1221       H  0.99546950  0.41480062  0.83510569     0.28300
H1222       H  0.99598822  0.31723415  0.68133797     0.28300
H1223       H  0.04039635  0.33704554  0.80543661     0.18900
H1224       H  0.93690074  0.38996692  0.72812293     0.18900
C1225       C  0.98831455  0.47321858  0.42161932    -0.07000
C1226       C  0.94952412  0.48683628  0.42294850    -0.18100
C1227       C  0.94938160  0.50985353  0.40927105     0.10200
C1228       C  0.98899430  0.51984906  0.39396851    -0.06900
C1229       C  0.02607721  0.50544082  0.38687190    -0.18100
C1230       C  0.02631043  0.48239220  0.40050106     0.10300
S1231       S  0.89972349  0.52674058  0.41685488    -0.33100
S1232       S  0.07692566  0.46603695  0.39532462    -0.33100
H1233       H  0.09987323  0.48160968  0.36775699     0.28300
H1234       H  0.87055561  0.50815328  0.41937142     0.28300
H1235       H  0.91957463  0.47983117  0.43744214     0.18900
H1236       H  0.05647490  0.51291120  0.37447265     0.18900
C1237       C  0.66961290  0.37664428  0.52294927    -0.07000
C1238       C  0.68825778  0.35744974  0.54444877    -0.18100
C1239       C  0.73326943  0.35216186  0.53999492     0.10200
C1240       C  0.76067849  0.36642542  0.51376641    -0.06900
C1241       C  0.74195690  0.38519646  0.49133143    -0.18100
C1242       C  0.69724476  0.39071095  0.49626452     0.10300
S1243       S  0.75329402  0.32659791  0.56702632    -0.33100
S1244       S  0.67887324  0.41694335  0.47062214    -0.33100
H1245       H  0.65157454  0.42346283  0.50759199     0.28300
H1246       H  0.78616205  0.32181621  0.53408896     0.28300
H1247       H  0.66744493  0.34616284  0.56418865     0.18900
H1248       H  0.76291785  0.39651189  0.47179295     0.18900
C1249       C  0.16890518  0.37470968  0.50758684    -0.07000
C1250       C  0.18567270  0.35499566  0.52896616    -0.18100
C1251       C  0.23121062  0.35047321  0.53109774     0.10200
C1252       C  0.26111721  0.36606462  0.51162687    -0.06900
C1253       C  0.24419809  0.38542655  0.48920030    -0.18100
C1254       C  0.19881526  0.39006426  0.48751257     0.10300
S1255       S  0.24865765  0.32439508  0.55815418    -0.33100
S1256       S  0.18165151  0.41662923  0.46222183    -0.33100
H1257       H  0.14883190  0.42159300  0.49511215     0.28300
H1258       H  0.28679898  0.32100020  0.53124667     0.28300
H1259       H  0.16298716  0.34292561  0.54413214     0.18900
H1260       H  0.26676405  0.39768443  0.47445554     0.18900
C1261       C  0.51121898  0.35887780  0.23160138    -0.07000
C1262       C  0.46835911  0.36722716  0.24146216    -0.18100
C1263       C  0.45747676  0.37715679  0.28360516     0.10200
C1264       C  0.48942134  0.37810177  0.31833508    -0.06900
C1265       C  0.53200939  0.36913485  0.30917143    -0.18100
C1266       C  0.54306767  0.35941845  0.26665137     0.10300
S1267       S  0.40294746  0.38939643  0.28987483    -0.33100
S1268       S  0.59734966  0.34689712  0.26040218    -0.33100
H1269       H  0.58333485  0.32861720  0.23263280     0.28300
H1270       H  0.41703371  0.40822946  0.31608523     0.28300
H1271       H  0.44331697  0.36719773  0.21529521     0.18900
H1272       H  0.55654230  0.36877870  0.33598181     0.18900
C1273       C  0.46315907  0.36403821  0.73660813    -0.07000
C1274       C  0.49497843  0.35012153  0.75767367    -0.18100
C1275       C  0.51062425  0.35483704  0.80183504     0.10200
C1276       C  0.49445754  0.37421222  0.82590987    -0.06900
C1277       C  0.46074948  0.38740924  0.80565861    -0.18100
C1278       C  0.44506524  0.38258185  0.76162323     0.10300
S1279       S  0.55061158  0.33568356  0.82679837    -0.33100
S1280       S  0.40529146  0.40207313  0.73767070    -0.33100
H1281       H  0.38221479  0.38536054  0.71296154     0.28300
H1282       H  0.55431216  0.32039783  0.78965745     0.28300
H1283       H  0.50943822  0.33614855  0.73814073     0.18900
H1284       H  0.44708359  0.40202728  0.82390184     0.18900
C1285       C  0.48928976  0.52687484  0.46114919    -0.07000
C1286       C  0.49703766  0.51998812  0.50602870    -0.18100
C1287       C  0.50397484  0.49696655  0.51654931     0.10200
C1288       C  0.50193446  0.47997739  0.48176201    -0.06900
C1289       C  0.49373308  0.48680765  0.43684862    -0.18100
C1290       C  0.48718992  0.50992690  0.42621901     0.10300
S1291       S  0.51659962  0.49044395  0.57515987    -0.33100
S1292       S  0.47486331  0.51656971  0.36756832    -0.33100
H1293       H  0.45087841  0.53671086  0.37717742     0.28300
H1294       H  0.54237389  0.47094361  0.56511884     0.28300
H1295       H  0.50021971  0.53276466  0.53279698     0.18900
H1296       H  0.49022832  0.47397912  0.41023536     0.18900
C1297       C  0.64880130  0.23146631  0.06641076    -0.07000
C1298       C  0.63573383  0.24316942  0.10642673    -0.18100
C1299       C  0.61198023  0.26384941  0.10472171     0.10200
C1300       C  0.60097282  0.27341670  0.06197323    -0.06900
C1301       C  0.61327788  0.26151947  0.02204897    -0.18100
C1302       C  0.63649281  0.24075473  0.02368742     0.10300
S1303       S  0.59578233  0.27680341  0.15837278    -0.33100
S1304       S  0.64760113  0.22667155  0.96982104    -0.33100
H1305       H  0.63559862  0.20487748  0.98530162     0.28300
H1306       H  0.55586777  0.28613857  0.14241498     0.28300
H1307       H  0.64408148  0.23614988  0.13941723     0.18900
H1308       H  0.60505470  0.26858437  0.98905080     0.18900
C1309       C  0.02831174  0.12993677  0.05476532    -0.07000
C1310       C  0.00984970  0.11257029  0.08195628    -0.18100
C1311       C  0.96451660  0.10831838  0.08302996     0.10200
C1312       C  0.93598383  0.12158912  0.05624613    -0.06900
C1313       C  0.95377055  0.13868577  0.02833334    -0.18100
C1314       C  0.99960728  0.14294812  0.02697496     0.10300
S1315       S  0.94518595  0.08611750  0.12050822    -0.33100
S1316       S  0.01992669  0.16588965  0.99199199    -0.33100
H1317       H  0.98067300  0.16952745  0.96747032     0.28300
H1318       H  0.90562994  0.08144239  0.09742114     0.28300
H1319       H  0.03095686  0.10199343  0.10290600     0.18900
H1320       H  0.93138574  0.14930025  0.00892778     0.18900
C1321       C  0.52836156  0.13455558  0.08521780    -0.07000
C1322       C  0.51072809  0.11714104  0.11229861    -0.18100
C1323       C  0.46579405  0.11107235  0.10931072     0.10200
C1324       C  0.43788504  0.12290827  0.07864558    -0.06900
C1325       C  0.45592649  0.14094791  0.05313013    -0.18100
C1326       C  0.50031847  0.14683233  0.05605703     0.10300
S1327       S  0.44617939  0.08714336  0.14195694    -0.33100
S1328       S  0.51943226  0.16984438  0.02045293    -0.33100
H1329       H  0.55543382  0.17613848  0.04788242     0.28300
H1330       H  0.48603311  0.08221495  0.16442452     0.28300
H1331       H  0.53286512  0.10743488  0.13374676     0.18900
H1332       H  0.43530495  0.15073096  0.03025028     0.18900
C1333       C  0.15234254  0.22625390  0.05597116    -0.07000
C1334       C  0.10876862  0.22740569  0.03948569    -0.18100
C1335       C  0.08398884  0.24782558  0.04032083     0.10200
C1336       C  0.10317540  0.26849244  0.05646938    -0.06900
C1337       C  0.14641571  0.26720612  0.07395333    -0.18100
C1338       C  0.17096782  0.24667117  0.07368619     0.10300
S1339       S  0.02727937  0.24572062  0.02241542    -0.33100
S1340       S  0.22697615  0.24824098  0.09373862    -0.33100
H1341       H  0.24415980  0.23598348  0.05611090     0.28300
H1342       H  0.01122364  0.25902821  0.05920735     0.28300
H1343       H  0.09310010  0.21199502  0.02694792     0.18900
H1344       H  0.16223247  0.28258924  0.08635462     0.18900
C1345       C  0.86031362  0.77153452  0.96150822    -0.07000
C1346       C  0.83559859  0.75310183  0.97829199    -0.18100
C1347       C  0.85285153  0.73089647  0.97928944     0.10200
C1348       C  0.89661877  0.72667262  0.96380044    -0.06900
C1349       C  0.92135483  0.74512998  0.94708439    -0.18100
C1350       C  0.90416514  0.76738519  0.94649471     0.10300
S1351       S  0.81602107  0.70880792  0.99848539    -0.33100
S1352       S  0.94113585  0.78974438  0.92906379    -0.33100
H1353       H  0.92863897  0.80486557  0.96452473     0.28300
H1354       H  0.82718745  0.69355494  0.96294931     0.28300
H1355       H  0.80189206  0.75587896  0.98988597     0.18900
H1356       H  0.95503041  0.74234327  0.93542976     0.18900
C1357       C  0.74104452  0.97755133  0.01416568    -0.07000
C1358       C  0.74749470  0.98356438  0.06009515    -0.18100
C1359       C  0.75616710  0.00621870  0.07309292     0.10200
C1360       C  0.75793057  0.02358479  0.03964266    -0.06900
C1361       C  0.75094052  0.01757151  0.99384091    -0.18100
C1362       C  0.74154457  0.99504784  0.98097287     0.10300
S1363       S  0.76709309  0.01161629  0.13263857    -0.33100
S1364       S  0.72826895  0.98998352  0.92179687    -0.33100
H1365       H  0.69998377  0.97147050  0.93018377     0.28300
H1366       H  0.79859909  0.02871294  0.12449964     0.28300
H1367       H  0.74835080  0.97034669  0.08577687     0.18900
H1368       H  0.75033683  0.03074468  0.96805494     0.18900
C1369       C  0.48543207  0.86215358  0.98783559    -0.07000
C1370       C  0.51215004  0.84508126  0.96826457    -0.18100
C1371       C  0.55816629  0.84740591  0.96674658     0.10200
C1372       C  0.57796914  0.86779838  0.98307015    -0.06900
C1373       C  0.55107782  0.88473435  0.00303916    -0.18100
C1374       C  0.50513109  0.88220294  0.00541524     0.10300
S1375       S  0.58968469  0.82321242  0.94598157    -0.33100
S1376       S  0.47178354  0.90542859  0.02804981    -0.33100
H1377       H  0.50611781  0.92128224  0.03365009     0.28300
H1378       H  0.62331421  0.82559770  0.97865412     0.28300
H1379       H  0.49714312  0.82962122  0.95509252     0.18900
H1380       H  0.56603052  0.90033035  0.01547726     0.18900
C1381       C  0.07888263  0.87598117  0.98438707    -0.07000
C1382       C  0.05468318  0.88093389  0.94481635    -0.18100
C1383       C  0.00915293  0.87717224  0.94246141     0.10200
C1384       C  0.98642509  0.86844810  0.98083626    -0.06900
C1385       C  0.01062020  0.86332607  0.02033185    -0.18100
C1386       C  0.05653000  0.86621222  0.02193948     0.10300
S1387       S  0.98221439  0.88466019  0.88989262    -0.33100
S1388       S  0.08486662  0.85503264  0.07092764    -0.33100
H1389       H  0.11995670  0.84547743  0.04529813     0.28300
H1390       H  0.94685213  0.89621930  0.91130677     0.28300
H1391       H  0.07132242  0.88808834  0.91539624     0.18900
H1392       H  0.99381016  0.85620021  0.04967696     0.18900
C1393       C  0.35070050  0.77591626  0.91153799    -0.07000
C1394       C  0.39698385  0.77397997  0.91019444    -0.18100
C1395       C  0.41811404  0.75276967  0.90457261     0.10200
C1396       C  0.39274332  0.73257816  0.90074152    -0.06900
C1397       C  0.34646797  0.73467213  0.89871180    -0.18100
C1398       C  0.32520804  0.75602493  0.90413596     0.10300
S1399       S  0.47765997  0.75276532  0.90246340    -0.33100
S1400       S  0.26562932  0.75761807  0.90110864    -0.33100
H1401       H  0.25798039  0.73400516  0.89728924     0.28300
H1402       H  0.48093377  0.73428402  0.87157637     0.28300
H1403       H  0.41706793  0.78906908  0.91505728     0.18900
H1404       H  0.32681351  0.71937871  0.89508044     0.18900
C1405       C  0.25904991  0.96955184  0.08736309    -0.07000
C1406       C  0.21825896  0.98084141  0.09085553    -0.18100
C1407       C  0.21613513  0.00468384  0.09717916     0.10200
C1408       C  0.25564314  0.01769378  0.09850585    -0.06900
C1409       C  0.29597851  0.00597674  0.10214930    -0.18100
C1410       C  0.29790145  0.98205733  0.09772312     0.10300
S1411       S  0.16256473  0.01835585  0.10133704    -0.33100
S1412       S  0.35124054  0.96847736  0.10344863    -0.33100
H1413       H  0.33461285  0.94677854  0.11437001     0.28300
H1414       H  0.13869746  0.99839997  0.11105020     0.28300
H1415       H  0.18821467  0.97138545  0.08456511     0.18900
H1416       H  0.32641288  0.01550143  0.10540181     0.18900
C1417       C  0.88961913  0.27656891  0.56654836    -0.07000
C1418       C  0.84364903  0.27578526  0.57406061    -0.18100
C1419       C  0.82058391  0.25501189  0.57409220     0.10200
C1420       C  0.84384045  0.23421697  0.56739160    -0.06900
C1421       C  0.89014075  0.23496261  0.56281493    -0.18100
C1422       C  0.91314508  0.25565639  0.56336594     0.10300
S1423       S  0.76129624  0.25641932  0.57913116    -0.33100
S1424       S  0.97263799  0.25410024  0.56242013    -0.33100
H1425       H  0.97793233  0.27266997  0.59268287     0.28300
H1426       H  0.75383257  0.24032971  0.54410116     0.28300
H1427       H  0.82506720  0.29154936  0.57735765     0.18900
H1428       H  0.90883646  0.21917341  0.55955934     0.18900
C1429       C  0.76974483  0.16947384  0.36421111    -0.07000
C1430       C  0.73007216  0.17787763  0.34535582    -0.18100
C1431       C  0.72277736  0.17820832  0.29801828     0.10200
C1432       C  0.75556367  0.16960901  0.26776842    -0.06900
C1433       C  0.79659182  0.16294067  0.28672156    -0.18100
C1434       C  0.80398744  0.16264474  0.33404595     0.10300
S1435       S  0.67078017  0.18963215  0.27902261    -0.33100
S1436       S  0.85562300  0.15110536  0.35483508    -0.33100
H1437       H  0.87706188  0.14856661  0.31235663     0.28300
H1438       H  0.68920998  0.20090714  0.24124987     0.28300
H1439       H  0.70364954  0.18358670  0.36791732     0.18900
H1440       H  0.82255750  0.15650497  0.26452371     0.18900
C1441       C  0.74916882  0.10731185  0.76748420    -0.07000
C1442       C  0.71406351  0.12024833  0.78587954    -0.18100
C1443       C  0.70544270  0.12090859  0.83305896     0.10200
C1444       C  0.73228900  0.10795959  0.86290248    -0.06900
C1445       C  0.76646395  0.09436748  0.84394752    -0.18100
C1446       C  0.77489781  0.09375505  0.79685553     0.10300
S1447       S  0.66208230  0.13961240  0.85419038    -0.33100
S1448       S  0.81822561  0.07492625  0.77642659    -0.33100
H1449       H  0.79965986  0.07056925  0.73333436     0.28300
H1450       H  0.65068208  0.14949313  0.81223812     0.28300
H1451       H  0.69426582  0.13053627  0.76312484     0.18900
H1452       H  0.78692062  0.08404471  0.86604912     0.18900
C1453       C  0.56861197  0.11875280  0.55179633    -0.07000
C1454       C  0.54742754  0.12389420  0.59336434    -0.18100
C1455       C  0.50182988  0.12840957  0.59555868     0.10200
C1456       C  0.47679270  0.12861009  0.55465054    -0.06900
C1457       C  0.49835128  0.12295298  0.51326907    -0.18100
C1458       C  0.54326037  0.11742389  0.51166434     0.10300
S1459       S  0.47675105  0.13267946  0.65116443    -0.33100
S1460       S  0.56582111  0.10774666  0.45768329    -0.33100
H1461       H  0.59677627  0.09260063  0.47681891     0.28300
H1462       H  0.51539268  0.13082858  0.67736668     0.28300
H1463       H  0.56697052  0.12478464  0.62417364     0.18900
H1464       H  0.47992079  0.12226588  0.48168100     0.18900
C1465       C  0.06647351  0.12484283  0.57099497    -0.07000
C1466       C  0.04447511  0.12545295  0.52890478    -0.18100
C1467       C  0.99860863  0.12857655  0.52676099     0.10200
C1468       C  0.97412903  0.13207669  0.56760554    -0.06900
C1469       C  0.99640464  0.13131832  0.60953798    -0.18100
C1470       C  0.04164391  0.12720467  0.61176665     0.10300
S1471       S  0.97359308  0.12687744  0.47118476    -0.33100
S1472       S  0.06500191  0.12425036  0.66796976    -0.33100
H1473       H  0.09372144  0.10625370  0.65534752     0.28300
H1474       H  0.93897631  0.11263723  0.48558175     0.28300
H1475       H  0.06312447  0.12353810  0.49738803     0.18900
H1476       H  0.97830948  0.13360474  0.64130931     0.18900
C1477       C  0.35456015  0.22997137  0.55981792    -0.07000
C1478       C  0.36289847  0.24204450  0.60061174    -0.18100
C1479       C  0.38224415  0.26384801  0.60029485     0.10200
C1480       C  0.39409623  0.27391619  0.55821231    -0.06900
C1481       C  0.38655450  0.26161244  0.51766740    -0.18100
C1482       C  0.36724881  0.23996096  0.51791828     0.10300
S1483       S  0.39131869  0.27768124  0.65465712    -0.33100
S1484       S  0.36091292  0.22588159  0.46335943    -0.33100
H1485       H  0.37185961  0.20396721  0.47923527     0.28300
H1486       H  0.43104683  0.28830904  0.64195077     0.28300
H1487       H  0.35374969  0.23456334  0.63300955     0.18900
H1488       H  0.39551710  0.26904131  0.48514569     0.18900
C1489       C  0.25216629  0.09447588  0.36149191    -0.07000
C1490       C  0.21014322  0.10081208  0.34504115    -0.18100
C1491       C  0.20016040  0.10083252  0.29826006     0.10200
C1492       C  0.23322259  0.09440684  0.26615589    -0.06900
C1493       C  0.27435006  0.08657791  0.28311093    -0.18100
C1494       C  0.28394515  0.08637641  0.32988484     0.10300
S1495       S  0.14546679  0.10986258  0.28112001    -0.33100
S1496       S  0.33702282  0.07525790  0.34680117    -0.33100
H1497       H  0.32119702  0.06491627  0.38684921     0.28300
H1498       H  0.12891736  0.11568792  0.32466888     0.28300
H1499       H  0.18520441  0.10673358  0.36900584     0.18900
H1500       H  0.29999236  0.08080823  0.25972691     0.18900
C1501       C  0.27229317  0.16133901  0.76459549    -0.07000
C1502       C  0.23602770  0.17257468  0.78580856    -0.18100
C1503       C  0.22806438  0.17124643  0.83321885     0.10200
C1504       C  0.25678970  0.15817479  0.86054886    -0.06900
C1505       C  0.29466214  0.14835526  0.83959383    -0.18100
C1506       C  0.30250844  0.14961567  0.79262873     0.10300
S1507       S  0.18215737  0.18686279  0.85812152    -0.33100
S1508       S  0.34950334  0.13394889  0.77070041    -0.33100
H1509       H  0.32376321  0.12113743  0.74015523     0.28300
H1510       H  0.16550758  0.19586201  0.81725400     0.28300
H1511       H  0.21305784  0.18198560  0.76478938     0.18900
H1512       H  0.31771657  0.13841522  0.85958530     0.18900
C1513       C  0.64435627  0.77884282  0.41516898    -0.07000
C1514       C  0.66967017  0.75867576  0.41166119    -0.18100
C1515       C  0.64996731  0.73695604  0.40988497     0.10200
C1516       C  0.60328756  0.73480030  0.41026416    -0.06900
C1517       C  0.57780444  0.75496496  0.41311634    -0.18100
C1518       C  0.59756442  0.77680469  0.41547004     0.10300
S1519       S  0.68659737  0.71261792  0.41155019    -0.33100
S1520       S  0.56239060  0.80167427  0.42257464    -0.33100
H1521       H  0.52216734  0.79075630  0.41294057     0.28300
H1522       H  0.66095673  0.70041179  0.44314365     0.28300
H1523       H  0.70540842  0.75977456  0.41208975     0.18900
H1524       H  0.54215613  0.75354908  0.41432869     0.18900
C1525       C  0.76471240  0.88789957  0.18212893    -0.07000
C1526       C  0.78455574  0.86848202  0.20122443    -0.18100
C1527       C  0.77091246  0.86000432  0.24339577     0.10200
C1528       C  0.73755797  0.87157042  0.26863193    -0.06900
C1529       C  0.71813612  0.89125651  0.25006154    -0.18100
C1530       C  0.73136268  0.89955259  0.20730914     0.10300
S1531       S  0.79573484  0.83355662  0.26178266    -0.33100
S1532       S  0.70535525  0.92540856  0.18749325    -0.33100
H1533       H  0.74078203  0.93234049  0.15966049     0.28300
H1534       H  0.75762205  0.82552187  0.28407848     0.28300
H1535       H  0.80895352  0.85882957  0.18178195     0.18900
H1536       H  0.69363807  0.90074914  0.26971728     0.18900
C1537       C  0.75036318  0.86313102  0.67994373    -0.07000
C1538       C  0.78665219  0.87390964  0.70084995    -0.18100
C1539       C  0.79842275  0.86956117  0.74613123     0.10200
C1540       C  0.77440347  0.85341137  0.77177241    -0.06900
C1541       C  0.73905230  0.84204544  0.75036847    -0.18100
C1542       C  0.72703749  0.84653282  0.70514815     0.10300
S1543       S  0.84163752  0.88687916  0.77000647    -0.33100
S1544       S  0.68243140  0.82998114  0.68176680    -0.33100
H1545       H  0.70451578  0.82539405  0.64027304     0.28300
H1546       H  0.81497129  0.89466282  0.80649842     0.28300
H1547       H  0.80508007  0.88673663  0.68245350     0.18900
H1548       H  0.72011528  0.82957800  0.76923497     0.18900
C1549       C  0.75495040  0.97530595  0.56636056    -0.07000
C1550       C  0.71501606  0.98642939  0.57868749    -0.18100
C1551       C  0.71324205  0.00991090  0.58926898     0.10200
C1552       C  0.75195724  0.02307907  0.58596258    -0.06900
C1553       C  0.79250332  0.01143702  0.57836480    -0.18100
C1554       C  0.79443319  0.98790539  0.56872892     0.10300
S1555       S  0.66016236  0.02243867  0.60199311    -0.33100
S1556       S  0.84733009  0.97575901  0.55350677    -0.33100
H1557       H  0.84184400  0.95626231  0.58054725     0.28300
H1558       H  0.67559551  0.03415400  0.64082754     0.28300
H1559       H  0.68437668  0.97694623  0.57762416     0.18900
H1560       H  0.82292043  0.02109810  0.57663609     0.18900
C1561       C  0.01806158  0.86891548  0.47884293    -0.07000
C1562       C  0.00245190  0.88044025  0.44017003    -0.18100
C1563       C  0.95817588  0.88763925  0.43688102     0.10200
C1564       C  0.92836097  0.88293989  0.47286214    -0.06900
C1565       C  0.94412660  0.87157249  0.51165493    -0.18100
C1566       C  0.98819295  0.86443618  0.51497906     0.10300
S1567       S  0.94102453  0.90404497  0.38803906    -0.33100
S1568       S  0.00342904  0.84896746  0.56555422    -0.33100
H1569       H  0.03322123  0.83416409  0.54293825     0.28300
H1570       H  0.98200615  0.90389965  0.36508281     0.28300
H1571       H  0.02550928  0.88451104  0.41307490     0.18900
H1572       H  0.92147772  0.86742362  0.53912969     0.18900
C1573       C  0.42619976  0.88220079  0.46986157    -0.07000
C1574       C  0.44484305  0.87381214  0.51026105    -0.18100
C1575       C  0.49015636  0.86892308  0.51338798     0.10200
C1576       C  0.51866746  0.87362621  0.47604069    -0.06900
C1577       C  0.49980923  0.88231208  0.43583440    -0.18100
C1578       C  0.45431501  0.88657408  0.43234018     0.10300
S1579       S  0.50828187  0.85471419  0.56432300    -0.33100
S1580       S  0.43446521  0.89819880  0.37941471    -0.33100
H1581       H  0.40034923  0.91137524  0.39937993     0.28300
H1582       H  0.53342855  0.83830946  0.54005502     0.28300
H1583       H  0.42346661  0.86968326  0.53882143     0.18900
H1584       H  0.52074790  0.88622173  0.40684251     0.18900
C1585       C  0.10492155  0.72438264  0.46444431    -0.07000
C1586       C  0.10559804  0.73704539  0.42373054    -0.18100
C1587       C  0.12874071  0.75767494  0.42004682     0.10200
C1588       C  0.15168545  0.76657638  0.45824642    -0.06900
C1589       C  0.15195770  0.75367445  0.49862273    -0.18100
C1590       C  0.12869734  0.73303465  0.50232972     0.10300
S1591       S  0.12878869  0.77120877  0.36493751    -0.33100
S1592       S  0.12866670  0.71946996  0.55732049    -0.33100
H1593       H  0.08344298  0.71400792  0.55633212     0.28300
H1594       H  0.17269570  0.77887288  0.36765832     0.28300
H1595       H  0.08871031  0.73055210  0.39382370     0.18900
H1596       H  0.16879613  0.76024282  0.52848972     0.18900
C1597       C  0.23869091  0.84533811  0.27953575    -0.07000
C1598       C  0.28071656  0.85453668  0.27023613    -0.18100
C1599       C  0.29136788  0.86378222  0.22786350     0.10200
C1600       C  0.26071888  0.86225031  0.19210004    -0.06900
C1601       C  0.21958968  0.85183277  0.20029295    -0.18100
C1602       C  0.20818506  0.84349402  0.24342524     0.10300
S1603       S  0.34263443  0.87920730  0.22323498    -0.33100
S1604       S  0.15488803  0.83026389  0.24954907    -0.33100
H1605       H  0.16906587  0.81397177  0.28141047     0.28300
H1606       H  0.32641419  0.89586897  0.19318707     0.28300
H1607       H  0.30459691  0.85626696  0.29717749     0.18900
H1608       H  0.19615625  0.84995314  0.17266557     0.18900
C1609       C  0.27877134  0.86569244  0.77104978    -0.07000
C1610       C  0.24136978  0.85473068  0.75344005    -0.18100
C1611       C  0.22814190  0.85762710  0.70830650     0.10200
C1612       C  0.25217975  0.87245305  0.67948590    -0.06900
C1613       C  0.29159200  0.88211375  0.69641885    -0.18100
C1614       C  0.30502572  0.87894898  0.74167867     0.10300
S1615       S  0.18077769  0.84147910  0.69039294    -0.33100
S1616       S  0.35453025  0.89318729  0.76021100    -0.33100
H1617       H  0.33766608  0.90027024  0.80286518     0.28300
H1618       H  0.20087394  0.83408802  0.64950423     0.28300
H1619       H  0.22136715  0.84422582  0.77571250     0.18900
H1620       H  0.31146213  0.89297813  0.67481872     0.18900
C1621       C  0.24816703  0.97667950  0.51313796    -0.07000
C1622       C  0.24208407  0.98338225  0.55881538    -0.18100
C1623       C  0.23488997  0.00636729  0.57091592     0.10200
C1624       C  0.23489533  0.02345693  0.53688348    -0.06900
C1625       C  0.24072977  0.01675470  0.49116973    -0.18100
C1626       C  0.24768989  0.99378158  0.47899950     0.10300
S1627       S  0.22357150  0.01261961  0.63022630    -0.33100
S1628       S  0.25735456  0.98765202  0.41927447    -0.33100
H1629       H  0.28393274  0.96821844  0.42624559     0.28300
H1630       H  0.19552654  0.03136398  0.62185645     0.28300
H1631       H  0.24056979  0.97048356  0.58509612     0.18900
H1632       H  0.24197814  0.02963919  0.46482786     0.18900
loop_ 
_geom_bond_atom_site_label_1 
_geom_bond_atom_site_label_2 
_geom_bond_distance 
_geom_bond_site_symmetry_2 
_ccdc_geom_bond_type 
Zr1           O2   2.441       .  S
Zr1           O3   2.445       .  S
Zr1           O4   2.463       .  S
Zr1           O7   2.462       .  S
Zr1           O9   2.395       .  S
Zr1          O10   2.393       .  S
Zr1          O11   2.432       .  S
Zr1          O12   2.396       .  S
O2           H58   0.990       .  S
O2           H66   0.991       .  S
O3           C23   1.285       .  A
O4           C25   1.284       .  A
O5          Zr15   2.428       .  S
O5           C24   1.284       .  A
O6          Zr14   2.410       .  S
O6           C25   1.273       .  A
O7           C24   1.291       .  A
O8          Zr16   2.444       .  S
O8           C23   1.286       .  A
O9          Zr14   2.412       .  S
O9          Zr16   2.362       .  S
O10         Zr15   2.399       .  S
O10         Zr16   2.378       .  S
O10          H45   0.966       .  S
O11         Zr14   2.409       .  S
O11         Zr31   2.380       .  S
O11          H48   0.964       .  S
O12         Zr15   2.393       .  S
O12         Zr31   2.375       .  S
Zr13         O38   2.443       .  S
Zr13         O32   2.500       .  S
Zr13         O40   2.432       .  S
Zr13         O28   2.448       .  S
Zr13         O19   2.407       .  S
Zr13         O20   2.426       .  S
Zr13         O21   2.373       .  S
Zr13         O22   2.388       .  S
Zr14         O33   2.440       .  S
Zr14         O26   2.436       .  S
Zr14         O27   2.438       .  S
Zr14         O20   2.384       .  S
Zr14         O21   2.388       .  S
Zr15         O17   2.437       .  S
Zr15         O39   2.437       .  S
Zr15         O41   2.458       .  S
Zr15         O19   2.367       .  S
Zr15         O22   2.393       .  S
Zr16         O42   2.433       .  S
Zr16         O43   2.434       .  S
Zr16         O18   2.437       .  S
Zr16         O19   2.389       .  S
Zr16         O20   2.409       .  S
O17          H54   0.990       .  S
O18          H49   0.990       .  S
O18          H63   0.990       .  S
O20          H46   0.964       .  S
O21         Zr31   2.391       .  S
O22         Zr31   2.399       .  S
O22          H47   0.966       .  S
C23        C1588   1.498       .  S
C24        C1561   1.484       .  S
C25        C1597   1.487       .  S
O26          H62   0.990       .  S
O27          C29   1.284       .  A
O28          C29   1.285       .  A
C29        C1573   1.485       .  S
O30         Zr31   2.440       .  S
O30          H59   0.990       .  S
Zr31         O34   2.436       .  S
Zr31         O35   2.439       .  S
Zr31         O36   2.380       .  S
O32          C37   1.296       .  A
O33          H50   0.990       .  S
O33          H65   0.989       .  S
O34          H51   0.990       .  S
O35          H55   0.990       .  S
O35          H64   0.990       .  S
O36          C37   1.274       .  A
C37        C1621   1.487       .  S
O38          H57   0.990       .  S
O38          H61   0.991       .  S
O39          H53   0.990       .  S
O39          H60   0.989       .  S
O40          C44   1.283       .  A
O41          C44   1.289       .  A
O42          H52   0.990       .  S
O43          H56   0.991       .  S
C44        C1612   1.492       .  S
Zr67         O68   2.439       .  S
Zr67         O69   2.462       .  S
Zr67         O70   2.465       .  S
Zr67         O73   2.451       .  S
Zr67         O75   2.390       .  S
Zr67         O76   2.390       .  S
Zr67         O77   2.432       .  S
Zr67         O78   2.397       .  S
O68         H124   0.990       .  S
O68         H132   0.990       .  S
O69          C89   1.288       .  A
O70          C91   1.285       .  A
O71         Zr81   2.442       .  S
O71          C90   1.287       .  A
O72         Zr80   2.398       .  S
O72          C91   1.272       .  A
O73          C90   1.290       .  A
O74         Zr82   2.457       .  S
O74          C89   1.288       .  A
O75         Zr80   2.416       .  S
O75         Zr82   2.372       .  S
O76         Zr81   2.396       .  S
O76         Zr82   2.371       .  S
O76         H111   0.965       .  S
O77         Zr80   2.409       .  S
O77         Zr97   2.397       .  S
O77         H114   0.966       .  S
O78         Zr81   2.396       .  S
O78         Zr97   2.380       .  S
Zr79        O104   2.443       .  S
Zr79         O98   2.500       .  S
Zr79        O106   2.424       .  S
Zr79         O94   2.450       .  S
Zr79         O85   2.417       .  S
Zr79         O86   2.427       .  S
Zr79         O87   2.374       .  S
Zr79         O88   2.382       .  S
Zr80         O99   2.435       .  S
Zr80         O92   2.439       .  S
Zr80         O93   2.439       .  S
Zr80         O86   2.392       .  S
Zr80         O87   2.390       .  S
Zr81         O83   2.435       .  S
Zr81        O105   2.438       .  S
Zr81        O107   2.459       .  S
Zr81         O85   2.384       .  S
Zr81         O88   2.393       .  S
Zr82        O108   2.434       .  S
Zr82        O109   2.436       .  S
Zr82         O84   2.440       .  S
Zr82         O85   2.402       .  S
Zr82         O86   2.407       .  S
O83         H120   0.990       .  S
O84         H115   0.991       .  S
O84         H129   0.990       .  S
O86         H112   0.964       .  S
O87         Zr97   2.394       .  S
O88         Zr97   2.387       .  S
O88         H113   0.964       .  S
C89        C1513   1.508       .  S
C90        C1576   1.496       .  S
C91        C1528   1.480       .  S
O92         H128   0.991       .  S
O93          C95   1.283       .  A
O94          C95   1.286       .  A
C95        C1564   1.487       .  S
O96         Zr97   2.439       .  S
O96         H125   0.991       .  S
Zr97        O100   2.439       .  S
Zr97        O101   2.441       .  S
Zr97        O102   2.394       .  S
O98         C103   1.294       .  A
O99         H116   0.990       .  S
O99         H131   0.990       .  S
O100        H117   0.990       .  S
O101        H121   0.990       .  S
O101        H130   0.990       .  S
O102        C103   1.276       .  A
C103       C1549   1.494       .  S
O104        H123   0.990       .  S
O104        H127   0.991       .  S
O105        H119   0.990       .  S
O105        H126   0.989       .  S
O106        C110   1.282       .  A
O107        C110   1.289       .  A
O108        H118   0.990       .  S
O109        H122   0.990       .  S
C110       C1537   1.494       .  S
Zr133       O134   2.444       .  S
Zr133       O135   2.477       .  S
Zr133       O136   2.414       .  S
Zr133       O139   2.434       .  S
Zr133       O141   2.370       .  S
Zr133       O142   2.377       .  S
Zr133       O143   2.420       .  S
Zr133       O144   2.415       .  S
O134        H190   0.990       .  S
O134        H198   0.991       .  S
O135        C155   1.291       .  A
O136        C157   1.280       .  A
O137       Zr147   2.401       .  S
O137        C156   1.279       .  A
O138       Zr146   2.474       .  S
O138        C157   1.291       .  A
O139        C156   1.284       .  A
O140       Zr148   2.396       .  S
O140        C155   1.276       .  A
O141       Zr146   2.393       .  S
O141       Zr148   2.390       .  S
O142       Zr147   2.397       .  S
O142       Zr148   2.374       .  S
O142        H177   0.967       .  S
O143       Zr146   2.395       .  S
O143       Zr163   2.393       .  S
O143        H180   0.962       .  S
O144       Zr147   2.379       .  S
O144       Zr163   2.401       .  S
Zr145       O170   2.439       .  S
Zr145       O164   2.446       .  S
Zr145       O172   2.492       .  S
Zr145       O160   2.457       .  S
Zr145       O151   2.395       .  S
Zr145       O152   2.420       .  S
Zr145       O153   2.392       .  S
Zr145       O154   2.382       .  S
Zr146       O165   2.440       .  S
Zr146       O158   2.434       .  S
Zr146       O159   2.424       .  S
Zr146       O152   2.418       .  S
Zr146       O153   2.401       .  S
Zr147       O149   2.434       .  S
Zr147       O171   2.437       .  S
Zr147       O173   2.393       .  S
Zr147       O151   2.388       .  S
Zr147       O154   2.393       .  S
Zr148       O174   2.436       .  S
Zr148       O175   2.433       .  S
Zr148       O150   2.438       .  S
Zr148       O151   2.381       .  S
Zr148       O152   2.381       .  S
O149        H186   0.990       .  S
O150        H181   0.990       .  S
O150        H195   0.990       .  S
O152        H178   0.964       .  S
O153       Zr163   2.374       .  S
O154       Zr163   2.374       .  S
O154        H179   0.968       .  S
C155       C1624   1.488       .  S
C156       C1465   1.475       .  S
C157       C1489   1.493       .  S
O158        H194   0.990       .  S
O159        C161   1.286       .  A
O160        C161   1.289       .  A
C161       C1456   1.492       .  S
O162       Zr163   2.439       .  S
O162        H191   0.990       .  S
Zr163       O166   2.440       .  S
Zr163       O167   2.439       .  S
Zr163       O168   2.430       .  S
O164        C169   1.284       .  A
O165        H182   0.990       .  S
O165        H197   0.990       .  S
O166        H183   0.990       .  S
O167        H187   0.990       .  S
O167        H196   0.990       .  S
O168        C169   1.283       .  A
C169       C1477   1.490       .  S
O170        H189   0.990       .  S
O170        H193   0.990       .  S
O171        H185   0.990       .  S
O171        H192   0.990       .  S
O172        C176   1.295       .  A
O173        C176   1.276       .  A
O174        H184   0.990       .  S
O175        H188   0.991       .  S
C176       C1501   1.494       .  S
Zr199       O200   2.439       .  S
Zr199       O201   2.426       .  S
Zr199       O202   2.485       .  S
Zr199       O205   2.458       .  S
Zr199       O207   2.380       .  S
Zr199       O208   2.398       .  S
Zr199       O209   2.407       .  S
Zr199       O210   2.392       .  S
O200        H256   0.990       .  S
O200        H264   0.989       .  S
O201        C221   1.281       .  A
O202        C223   1.293       .  A
O203       Zr213   2.409       .  S
O203        C222   1.283       .  A
O204       Zr212   2.399       .  S
O204        C223   1.278       .  A
O205        C222   1.289       .  A
O206       Zr214   2.451       .  S
O206        C221   1.286       .  A
O207       Zr212   2.402       .  S
O207       Zr214   2.375       .  S
O208       Zr213   2.392       .  S
O208       Zr214   2.370       .  S
O208        H243   0.966       .  S
O209       Zr212   2.394       .  S
O209       Zr229   2.386       .  S
O209        H246   0.965       .  S
O210       Zr213   2.395       .  S
O210       Zr229   2.368       .  S
Zr211       O236   2.442       .  S
Zr211       O230   2.512       .  S
Zr211       O238   2.432       .  S
Zr211       O226   2.446       .  S
Zr211       O217   2.418       .  S
Zr211       O218   2.434       .  S
Zr211       O219   2.379       .  S
Zr211       O220   2.377       .  S
Zr212       O231   2.435       .  S
Zr212       O224   2.435       .  S
Zr212       O225   2.414       .  S
Zr212       O218   2.393       .  S
Zr212       O219   2.391       .  S
Zr213       O215   2.437       .  S
Zr213       O237   2.438       .  S
Zr213       O239   2.450       .  S
Zr213       O217   2.380       .  S
Zr213       O220   2.379       .  S
Zr214       O240   2.436       .  S
Zr214       O241   2.436       .  S
Zr214       O216   2.439       .  S
Zr214       O217   2.410       .  S
Zr214       O218   2.405       .  S
O215        H252   0.990       .  S
O216        H247   0.990       .  S
O216        H261   0.990       .  S
O218        H244   0.965       .  S
O219       Zr229   2.384       .  S
O220       Zr229   2.393       .  S
O220        H245   0.964       .  S
C221       C1420   1.491       .  S
C222       C1468   1.481       .  S
C223       C1429   1.495       .  S
O224        H260   0.990       .  S
O225        C227   1.281       .  A
O226        C227   1.286       .  A
C227       C1453   1.476       .  S
O228       Zr229   2.438       .  S
O228        H257   0.990       .  S
Zr229       O232   2.437       .  S
Zr229       O233   2.439       .  S
Zr229       O234   2.378       .  S
O230        C235   1.297       .  A
O231        H248   0.990       .  S
O231        H263   0.990       .  S
O232        H249   0.990       .  S
O233        H253   0.990       .  S
O233        H262   0.990       .  S
O234        C235   1.274       .  A
C235       C1552   1.499       .  S
O236        H255   0.990       .  S
O236        H259   0.991       .  S
O237        H251   0.990       .  S
O237        H258   0.990       .  S
O238        C242   1.283       .  A
O239        C242   1.287       .  A
O240        H250   0.990       .  S
O241        H254   0.990       .  S
C242       C1441   1.480       .  S
Zr265       O266   2.442       .  S
Zr265       O267   2.495       .  S
Zr265       O268   2.423       .  S
Zr265       O271   2.459       .  S
Zr265       O273   2.375       .  S
Zr265       O274   2.383   1_554  S
Zr265       O275   2.432       .  S
Zr265       O276   2.408   1_554  S
O266        H322   0.990       .  S
O266        H330   0.990       .  S
O267        C287   1.294       .  A
O268        C289   1.282       .  A
O269       Zr279   2.413       .  S
O269        C288   1.281       .  A
O270       Zr278   2.448       .  S
O270        C289   1.288       .  A
O271        C288   1.288   1_554  A
O272       Zr280   2.387   1_554  S
O272        C287   1.275       .  A
O273       Zr278   2.393       .  S
O273       Zr280   2.387   1_554  S
O274       Zr279   2.392       .  S
O274       Zr280   2.382       .  S
O274        H309   0.965       .  S
O275       Zr278   2.397       .  S
O275       Zr295   2.391   1_554  S
O275        H312   0.964       .  S
O276       Zr279   2.370       .  S
O276       Zr295   2.394       .  S
Zr277       O302   2.441       .  S
Zr277       O296   2.445       .  S
Zr277       O304   2.464       .  S
Zr277       O292   2.454       .  S
Zr277       O283   2.416       .  S
Zr277       O284   2.406       .  S
Zr277       O285   2.386       .  S
Zr277       O286   2.388       .  S
Zr278       O297   2.435       .  S
Zr278       O290   2.434       .  S
Zr278       O291   2.428       .  S
Zr278       O284   2.408   1_554  S
Zr278       O285   2.397   1_554  S
Zr279       O281   2.437       .  S
Zr279       O303   2.435       .  S
Zr279       O305   2.388       .  S
Zr279       O283   2.394       .  S
Zr279       O286   2.402       .  S
Zr280       O306   2.436       .  S
Zr280       O307   2.436       .  S
Zr280       O282   2.437       .  S
Zr280       O283   2.395       .  S
Zr280       O284   2.369       .  S
O281        H318   0.990       .  S
O282        H313   0.990       .  S
O282        H327   0.990   1_556  S
O284        H310   0.965       .  S
O285       Zr295   2.376       .  S
O286       Zr295   2.367       .  S
O286        H311   0.964       .  S
C287       C1405   1.492       .  S
C288       C1381   1.485       .  S
C289       C1600   1.475       .  S
O290        H326   0.990       .  S
O291        C293   1.285   1_554  A
O292        C293   1.289       .  A
C293       C1369   1.474       .  S
O294       Zr295   2.436   1_554  S
O294        H323   0.990       .  S
Zr295       O298   2.437   1_556  S
Zr295       O299   2.438       .  S
Zr295       O300   2.433       .  S
O296        C301   1.286       .  A
O297        H314   0.990       .  S
O297        H329   0.990       .  S
O298        H315   0.990       .  S
O299        H319   0.990       .  S
O299        H328   0.990       .  S
O300        C301   1.283       .  A
C301       C1393   1.493       .  S
O302        H321   0.990       .  S
O302        H325   0.990       .  S
O303        H317   0.990       .  S
O303        H324   0.990       .  S
O304        C308   1.289       .  A
O305        C308   1.276       .  A
O306        H316   0.990       .  S
O307        H320   0.990       .  S
C308       C1609   1.473       .  S
Zr331       O332   2.443       .  S
Zr331       O333   2.481       .  S
Zr331       O334   2.438       .  S
Zr331       O337   2.453       .  S
Zr331       O339   2.376       .  S
Zr331       O340   2.387   1_554  S
Zr331       O341   2.423       .  S
Zr331       O342   2.412   1_554  S
O332        H388   0.990       .  S
O332        H396   0.991       .  S
O333        C353   1.291       .  A
O334        C355   1.284       .  A
O335       Zr345   2.416       .  S
O335        C354   1.281       .  A
O336       Zr344   2.452       .  S
O336        C355   1.289       .  A
O337        C354   1.288   1_554  A
O338       Zr346   2.379       .  S
O338        C353   1.273   1_556  A
O339       Zr344   2.394       .  S
O339       Zr346   2.391   1_554  S
O340       Zr345   2.400       .  S
O340       Zr346   2.383       .  S
O340        H375   0.965       .  S
O341       Zr344   2.399       .  S
O341       Zr361   2.377       .  S
O341        H378   0.962       .  S
O342       Zr345   2.376       .  S
O342       Zr361   2.386   1_556  S
Zr343       O368   2.441       .  S
Zr343       O362   2.450       .  S
Zr343       O370   2.476       .  S
Zr343       O358   2.466       .  S
Zr343       O349   2.401       .  S
Zr343       O350   2.414       .  S
Zr343       O351   2.387   1_556  S
Zr343       O352   2.391       .  S
Zr344       O363   2.438       .  S
Zr344       O356   2.434       .  S
Zr344       O357   2.422       .  S
Zr344       O350   2.410   1_554  S
Zr344       O351   2.397       .  S
Zr345       O347   2.436       .  S
Zr345       O369   2.435       .  S
Zr345       O371   2.402       .  S
Zr345       O349   2.388       .  S
Zr345       O352   2.404       .  S
Zr346       O372   2.437       .  S
Zr346       O373   2.440       .  S
Zr346       O348   2.440       .  S
Zr346       O349   2.376       .  S
Zr346       O350   2.379       .  S
O347        H384   0.990       .  S
O348        H379   0.990       .  S
O348        H393   0.990       .  S
O350        H376   0.962       .  S
O351       Zr361   2.377       .  S
O352       Zr361   2.370   1_556  S
O352        H377   0.965       .  S
C353       C1357   1.484       .  S
C354       C1372   1.481       .  S
C355       C1525   1.481       .  S
O356        H392   0.990       .  S
O357        C359   1.284   1_554  A
O358        C359   1.290       .  A
C359       C1384   1.483       .  S
O360       Zr361   2.439       .  S
O360        H389   0.991       .  S
Zr361       O364   2.439       .  S
Zr361       O365   2.441   1_554  S
Zr361       O366   2.404   1_554  S
O362        C367   1.286       .  A
O363        H380   0.990       .  S
O363        H395   0.989       .  S
O364        H381   0.990       .  S
O365        H385   0.990       .  S
O365        H394   0.990       .  S
O366        C367   1.279       .  A
C367       C1345   1.487       .  S
O368        H387   0.990       .  S
O368        H391   0.989       .  S
O369        H383   0.990       .  S
O369        H390   0.990       .  S
O370        C374   1.290       .  A
O371        C374   1.273       .  A
O372        H382   0.990       .  S
O373        H386   0.990       .  S
C374       C1540   1.492       .  S
Zr397       O398   2.439       .  S
Zr397       O399   2.498       .  S
Zr397       O400   2.414       .  S
Zr397       O403   2.460       .  S
Zr397       O405   2.372       .  S
Zr397       O406   2.376       .  S
Zr397       O407   2.430       .  S
Zr397       O408   2.414       .  S
O398        H454   0.990       .  S
O398        H462   0.991       .  S
O399        C419   1.294       .  A
O400        C421   1.279       .  A
O401       Zr411   2.402       .  S
O401        C420   1.281       .  A
O402       Zr410   2.474       .  S
O402        C421   1.291       .  A
O403        C420   1.287       .  A
O404       Zr412   2.394       .  S
O404        C419   1.276       .  A
O405       Zr410   2.386       .  S
O405       Zr412   2.385       .  S
O406       Zr411   2.390       .  S
O406       Zr412   2.380       .  S
O406        H441   0.964       .  S
O407       Zr410   2.393       .  S
O407       Zr427   2.399       .  S
O407        H444   0.965       .  S
O408       Zr411   2.370       .  S
O408       Zr427   2.408       .  S
Zr409       O434   2.437   1_554  S
Zr409       O428   2.454       .  S
Zr409       O436   2.497   1_554  S
Zr409       O424   2.484       .  S
Zr409       O415   2.405   1_554  S
Zr409       O416   2.419       .  S
Zr409       O417   2.391       .  S
Zr409       O418   2.387       .  S
Zr410       O429   2.436       .  S
Zr410       O422   2.434       .  S
Zr410       O423   2.417       .  S
Zr410       O416   2.422       .  S
Zr410       O417   2.401       .  S
Zr411       O413   2.434   1_554  S
Zr411       O435   2.437   1_554  S
Zr411       O437   2.381   1_554  S
Zr411       O415   2.387   1_554  S
Zr411       O418   2.399       .  S
Zr412       O438   2.439   1_554  S
Zr412       O439   2.435   1_554  S
Zr412       O414   2.439       .  S
Zr412       O415   2.384   1_554  S
Zr412       O416   2.382       .  S
O413        H450   0.990       .  S
O414        H445   0.990       .  S
O414        H459   0.990       .  S
O416        H442   0.964       .  S
O417       Zr427   2.370       .  S
O418       Zr427   2.374       .  S
O418        H443   0.965       .  S
C419       C1408   1.495       .  S
C420       C1324   1.493       .  S
C421       C1492   1.503       .  S
O422        H458   0.990       .  S
O423        C425   1.285       .  A
O424        C425   1.294       .  A
C425       C1309   1.497       .  S
O426       Zr427   2.439       .  S
O426        H455   0.991       .  S
Zr427       O430   2.439       .  S
Zr427       O431   2.440       .  S
Zr427       O432   2.451       .  S
O428        C433   1.288       .  A
O429        H446   0.990       .  S
O429        H461   0.990       .  S
O430        H447   0.990       .  S
O431        H451   0.989       .  S
O431        H460   0.990       .  S
O432        C433   1.286       .  A
C433       C1333   1.509       .  S
O434        H453   0.990       .  S
O434        H457   0.990       .  S
O435        H449   0.990       .  S
O435        H456   0.990       .  S
O436        C440   1.297       .  A
O437        C440   1.276       .  A
O438        H448   0.990       .  S
O439        H452   0.990       .  S
C440       C1504   1.500       .  S
Zr463       O464   2.439       .  S
Zr463       O465   2.455       .  S
Zr463       O466   2.499       .  S
Zr463       O469   2.462       .  S
Zr463       O471   2.386       .  S
Zr463       O472   2.399       .  S
Zr463       O473   2.412       .  S
Zr463       O474   2.403       .  S
O464        H520   0.990       .  S
O464        H528   0.990       .  S
O465        C485   1.287       .  A
O466        C487   1.296       .  A
O467       Zr477   2.411       .  S
O467        C486   1.281       .  A
O468       Zr476   2.399       .  S
O468        C487   1.278       .  A
O469        C486   1.289       .  A
O470       Zr478   2.430       .  S
O470        C485   1.283       .  A
O471       Zr476   2.402       .  S
O471       Zr478   2.377       .  S
O472       Zr477   2.389       .  S
O472       Zr478   2.373       .  S
O472        H507   0.966       .  S
O473       Zr476   2.396       .  S
O473       Zr493   2.388       .  S
O473        H510   0.967       .  S
O474       Zr477   2.399       .  S
O474       Zr493   2.381       .  S
Zr475       O500   2.444   1_554  S
Zr475       O494   2.481       .  S
Zr475       O502   2.441   1_554  S
Zr475       O490   2.466       .  S
Zr475       O481   2.411   1_554  S
Zr475       O482   2.424       .  S
Zr475       O483   2.379       .  S
Zr475       O484   2.387       .  S
Zr476       O495   2.436       .  S
Zr476       O488   2.436       .  S
Zr476       O489   2.416       .  S
Zr476       O482   2.390       .  S
Zr476       O483   2.391       .  S
Zr477       O479   2.436   1_554  S
Zr477       O501   2.438   1_554  S
Zr477       O503   2.451   1_554  S
Zr477       O481   2.380   1_554  S
Zr477       O484   2.379       .  S
Zr478       O504   2.435   1_554  S
Zr478       O505   2.436   1_554  S
Zr478       O480   2.436       .  S
Zr478       O481   2.397   1_554  S
Zr478       O482   2.395       .  S
O479        H516   0.990   1_556  S
O480        H511   0.990       .  S
O480        H525   0.990       .  S
O482        H508   0.964       .  S
O483       Zr493   2.389       .  S
O484       Zr493   2.392       .  S
O484        H509   0.965       .  S
C485       C1297   1.492       .  S
C486       C1321   1.469       .  S
C487       C1432   1.507       .  S
O488        H524   0.990       .  S
O489        C491   1.281       .  A
O490        C491   1.289       .  A
C491       C1312   1.472       .  S
O492       Zr493   2.438       .  S
O492        H521   0.990       .  S
Zr493       O496   2.437       .  S
Zr493       O497   2.439       .  S
Zr493       O498   2.394       .  S
O494        C499   1.292       .  A
O495        H512   0.990       .  S
O495        H527   0.990       .  S
O496        H513   0.990       .  S
O497        H517   0.990       .  S
O497        H526   0.990       .  S
O498        C499   1.276       .  A
C499       C1360   1.485       .  S
O500        H519   0.991       .  S
O500        H523   0.990       .  S
O501        H515   0.990       .  S
O501        H522   0.989       .  S
O502        C506   1.285       .  A
O503        C506   1.287       .  A
O504        H514   0.990       .  S
O505        H518   0.990       .  S
C506       C1444   1.493       .  S
Zr529       O530   2.444       .  S
Zr529       O531   2.498       .  S
Zr529       O532   2.435       .  S
Zr529       O535   2.445       .  S
Zr529       O537   2.377       .  S
Zr529       O538   2.381       .  S
Zr529       O539   2.426       .  S
Zr529       O540   2.416       .  S
O530        H586   0.990       .  S
O530        H594   0.991       .  S
O531        C551   1.295       .  A
O532        C553   1.283       .  A
O533       Zr543   2.420       .  S
O533        C552   1.282       .  A
O534       Zr542   2.451       .  S
O534        C553   1.287       .  A
O535        C552   1.285       .  A
O536       Zr544   2.363       .  S
O536        C551   1.270       .  A
O537       Zr542   2.391       .  S
O537       Zr544   2.395       .  S
O538       Zr543   2.392       .  S
O538       Zr544   2.391       .  S
O538        H573   0.966       .  S
O539       Zr542   2.389       .  S
O539       Zr559   2.376       .  S
O539        H576   0.963       .  S
O540       Zr543   2.363       .  S
O540       Zr559   2.400       .  S
Zr541       O566   2.439       .  S
Zr541       O560   2.446       .  S
Zr541       O568   2.494       .  S
Zr541       O556   2.487       .  S
Zr541       O547   2.399       .  S
Zr541       O548   2.413       .  S
Zr541       O549   2.391       .  S
Zr541       O550   2.395       .  S
Zr542       O561   2.437       .  S
Zr542       O554   2.435       .  S
Zr542       O555   2.407       .  S
Zr542       O548   2.413       .  S
Zr542       O549   2.404       .  S
Zr543       O545   2.435       .  S
Zr543       O567   2.440       .  S
Zr543       O569   2.380       .  S
Zr543       O547   2.392       .  S
Zr543       O550   2.400       .  S
Zr544       O570   2.436       .  S
Zr544       O571   2.435       .  S
Zr544       O546   2.437       .  S
Zr544       O547   2.368       .  S
Zr544       O548   2.367       .  S
O545        H582   0.990       .  S
O546        H577   0.990       .  S
O546        H591   0.990       .  S
O548        H574   0.963       .  S
O549       Zr559   2.373       .  S
O550       Zr559   2.370       .  S
O550        H575   0.967       .  S
C551       C1288   1.483       .  S
C552       C1237   1.483       .  S
C553       C1264   1.484       .  S
O554        H590   0.990       .  S
O555        C557   1.281       .  A
O556        C557   1.295       .  A
C557       C1252   1.484       .  S
O558       Zr559   2.439       .  S
O558        H587   0.990       .  S
Zr559       O562   2.438       .  S
Zr559       O563   2.440       .  S
Zr559       O564   2.421       .  S
O560        C565   1.285       .  A
O561        H578   0.990       .  S
O561        H593   0.990       .  S
O562        H579   0.990       .  S
O563        H583   0.990       .  S
O563        H592   0.990       .  S
O564        C565   1.282       .  A
C565       C1480   1.487       .  S
O566        H585   0.990       .  S
O566        H589   0.990       .  S
O567        H581   0.990       .  S
O567        H588   0.990       .  S
O568        C572   1.296       .  A
O569        C572   1.276       .  A
O570        H580   0.990       .  S
O571        H584   0.990       .  S
C572       C1273   1.479       .  S
Zr595       O596   2.441       .  S
Zr595       O597   2.491       .  S
Zr595       O598   2.412       .  S
Zr595       O601   2.466       .  S
Zr595       O603   2.374   1_455  S
Zr595       O604   2.380       .  S
Zr595       O605   2.431   1_455  S
Zr595       O606   2.405       .  S
O596        H652   0.989       .  S
O596        H660   0.991       .  S
O597        C617   1.294   1_455  A
O598        C619   1.280   1_455  A
O599       Zr609   2.402       .  S
O599        C618   1.278       .  A
O600       Zr608   2.458       .  S
O600        C619   1.289       .  A
O601        C618   1.290       .  A
O602       Zr610   2.404       .  S
O602        C617   1.279       .  A
O603       Zr608   2.389       .  S
O603       Zr610   2.382       .  S
O604       Zr609   2.395       .  S
O604       Zr610   2.386   1_455  S
O604        H639   0.967       .  S
O605       Zr608   2.400       .  S
O605       Zr625   2.393       .  S
O605        H642   0.964       .  S
O606       Zr609   2.374       .  S
O606       Zr625   2.392   1_455  S
Zr607       O632   2.440       .  S
Zr607       O626   2.444       .  S
Zr607       O634   2.456       .  S
Zr607       O622   2.444       .  S
Zr607       O613   2.402       .  S
Zr607       O614   2.414       .  S
Zr607       O615   2.386       .  S
Zr607       O616   2.377       .  S
Zr608       O627   2.434       .  S
Zr608       O620   2.437       .  S
Zr608       O621   2.421       .  S
Zr608       O614   2.414       .  S
Zr608       O615   2.400       .  S
Zr609       O611   2.438       .  S
Zr609       O633   2.436       .  S
Zr609       O635   2.385       .  S
Zr609       O613   2.383   1_455  S
Zr609       O616   2.399   1_455  S
Zr610       O636   2.437       .  S
Zr610       O637   2.436       .  S
Zr610       O612   2.438       .  S
Zr610       O613   2.394       .  S
Zr610       O614   2.385       .  S
O611        H648   0.990       .  S
O612        H643   0.990       .  S
O612        H657   0.990       .  S
O614        H640   0.964       .  S
O615       Zr625   2.375       .  S
O616       Zr625   2.365       .  S
O616        H641   0.966       .  S
C617       C1225   1.505       .  S
C618       C1249   1.482       .  S
C619       C1201   1.476       .  S
O620        H656   0.990       .  S
O621        C623   1.283       .  A
O622        C623   1.286       .  A
C623       C1240   1.474       .  S
O624       Zr625   2.439   1_455  S
O624        H653   0.990       .  S
Zr625       O628   2.440       .  S
Zr625       O629   2.439   1_655  S
Zr625       O630   2.434       .  S
O626        C631   1.285       .  A
O627        H644   0.990       .  S
O627        H659   0.990       .  S
O628        H645   0.990       .  S
O629        H649   0.989       .  S
O629        H658   0.990       .  S
O630        C631   1.284       .  A
C631       C1417   1.495       .  S
O632        H651   0.990       .  S
O632        H655   0.990       .  S
O633        H647   0.990       .  S
O633        H654   0.989       .  S
O634        C638   1.288       .  A
O635        C638   1.274   1_455  A
O636        H646   0.990       .  S
O637        H650   0.990       .  S
C638       C1216   1.465       .  S
Zr661       O662   2.442       .  S
Zr661       O663   2.503       .  S
Zr661       O664   2.445       .  S
Zr661       O667   2.444       .  S
Zr661       O669   2.381   1_655  S
Zr661       O670   2.381       .  S
Zr661       O671   2.429   1_655  S
Zr661       O672   2.420       .  S
O662        H718   0.990       .  S
O662        H726   0.991       .  S
O663        C683   1.294       .  A
O664        C685   1.286   1_655  A
O665       Zr675   2.423       .  S
O665        C684   1.282       .  A
O666       Zr674   2.456       .  S
O666        C685   1.289       .  A
O667        C684   1.285       .  A
O668       Zr676   2.380       .  S
O668        C683   1.271   1_455  A
O669       Zr674   2.397       .  S
O669       Zr676   2.389       .  S
O670       Zr675   2.394       .  S
O670       Zr676   2.386   1_655  S
O670        H705   0.965       .  S
O671       Zr674   2.399       .  S
O671       Zr691   2.381   1_455  S
O671        H708   0.962       .  S
O672       Zr675   2.370       .  S
O672       Zr691   2.406       .  S
Zr673       O698   2.440       .  S
Zr673       O692   2.456       .  S
Zr673       O700   2.479       .  S
Zr673       O688   2.460       .  S
Zr673       O679   2.401       .  S
Zr673       O680   2.416       .  S
Zr673       O681   2.383       .  S
Zr673       O682   2.394       .  S
Zr674       O693   2.437       .  S
Zr674       O686   2.435       .  S
Zr674       O687   2.436       .  S
Zr674       O680   2.413       .  S
Zr674       O681   2.397       .  S
Zr675       O677   2.435       .  S
Zr675       O699   2.438       .  S
Zr675       O701   2.379       .  S
Zr675       O679   2.394   1_655  S
Zr675       O682   2.405   1_655  S
Zr676       O702   2.438       .  S
Zr676       O703   2.435       .  S
Zr676       O678   2.439       .  S
Zr676       O679   2.382       .  S
Zr676       O680   2.369       .  S
O677        H714   0.990       .  S
O678        H709   0.990       .  S
O678        H723   0.990       .  S
O680        H706   0.964       .  S
O681       Zr691   2.372   1_455  S
O682       Zr691   2.372   1_455  S
O682        H707   0.966       .  S
C683       C1228   1.497       .  S
C684       C1153   1.485       .  S
C685       C1180   1.491       .  S
O686        H722   0.990       .  S
O687        C689   1.286       .  A
O688        C689   1.289       .  A
C689       C1168   1.474       .  S
O690       Zr691   2.439       .  S
O690        H719   0.991       .  S
Zr691       O694   2.438   1_655  S
Zr691       O695   2.440       .  S
Zr691       O696   2.428   1_655  S
O692        C697   1.287       .  A
O693        H710   0.990       .  S
O693        H725   0.990       .  S
O694        H711   0.990       .  S
O695        H715   0.990       .  S
O695        H724   0.989       .  S
O696        C697   1.283       .  A
C697       C1585   1.500       .  S
O698        H717   0.990       .  S
O698        H721   0.990       .  S
O699        H713   0.990       .  S
O699        H720   0.990       .  S
O700        C704   1.293       .  A
O701        C704   1.275   1_655  A
O702        H712   0.990       .  S
O703        H716   0.990       .  S
C704       C1189   1.470       .  S
Zr727       O728   2.438       .  S
Zr727       O729   2.465       .  S
Zr727       O730   2.488       .  S
Zr727       O733   2.479       .  S
Zr727       O735   2.398       .  S
Zr727       O736   2.401       .  S
Zr727       O737   2.435       .  S
Zr727       O738   2.399       .  S
O728        H784   0.990       .  S
O728        H792   0.991       .  S
O729        C749   1.289       .  A
O730        C751   1.289       .  A
O731       Zr741   2.413       .  S
O731        C750   1.284       .  A
O732       Zr740   2.399       .  S
O732        C751   1.271       .  A
O733        C750   1.294       .  A
O734       Zr742   2.456       .  S
O734        C749   1.288       .  A
O735       Zr740   2.416       .  S
O735       Zr742   2.375       .  S
O736       Zr741   2.398       .  S
O736       Zr742   2.367       .  S
O736        H771   0.965       .  S
O737       Zr740   2.401       .  S
O737       Zr757   2.371       .  S
O737        H774   0.967       .  S
O738       Zr741   2.399       .  S
O738       Zr757   2.372       .  S
Zr739       O764   2.440       .  S
Zr739       O758   2.494       .  S
Zr739       O766   2.451       .  S
Zr739       O754   2.449       .  S
Zr739       O745   2.409       .  S
Zr739       O746   2.432       .  S
Zr739       O747   2.382       .  S
Zr739       O748   2.387       .  S
Zr740       O759   2.436       .  S
Zr740       O752   2.435       .  S
Zr740       O753   2.431       .  S
Zr740       O746   2.390       .  S
Zr740       O747   2.390       .  S
Zr741       O743   2.438       .  S
Zr741       O765   2.437       .  S
Zr741       O767   2.471       .  S
Zr741       O745   2.369       .  S
Zr741       O748   2.392       .  S
Zr742       O768   2.437       .  S
Zr742       O769   2.434       .  S
Zr742       O744   2.435       .  S
Zr742       O745   2.397       .  S
Zr742       O746   2.407       .  S
O743        H780   0.990       .  S
O744        H775   0.990       .  S
O744        H789   0.990       .  S
O746        H772   0.965       .  S
O747       Zr757   2.396       .  S
O748       Zr757   2.397       .  S
O748        H773   0.964       .  S
C749       C1516   1.506       .  S
C750       C1156   1.501       .  S
C751       C1132   1.497       .  S
O752        H788   0.990       .  S
O753        C755   1.284       .  A
O754        C755   1.286       .  A
C755       C1165   1.488       .  S
O756       Zr757   2.439       .  S
O756        H785   0.990       .  S
Zr757       O760   2.437       .  S
Zr757       O761   2.438       .  S
Zr757       O762   2.373       .  S
O758        C763   1.294       .  A
O759        H776   0.990       .  S
O759        H791   0.990       .  S
O760        H777   0.991       .  S
O761        H781   0.990       .  S
O761        H790   0.990       .  S
O762        C763   1.271       .  A
C763       C1285   1.482       .  S
O764        H783   0.989       .  S
O764        H787   0.990       .  S
O765        H779   0.990       .  S
O765        H786   0.990       .  S
O766        C770   1.285       .  A
O767        C770   1.292       .  A
O768        H778   0.990       .  S
O769        H782   0.990       .  S
C770       C1141   1.500       .  S
Zr793       O794   2.440       .  S
Zr793       O795   2.475       .  S
Zr793       O796   2.457       .  S
Zr793       O799   2.438       .  S
Zr793       O801   2.383       .  S
Zr793       O802   2.396       .  S
Zr793       O803   2.439       .  S
Zr793       O804   2.396       .  S
O794        H850   0.990       .  S
O794        H858   0.990       .  S
O795        C815   1.292       .  A
O796        C817   1.282       .  A
O797       Zr807   2.446       .  S
O797        C816   1.289   1_556  A
O798       Zr806   2.397       .  S
O798        C817   1.268   1_655  A
O799        C816   1.286       .  A
O800       Zr808   2.436   1_554  S
O800        C815   1.283       .  A
O801       Zr806   2.408   1_455  S
O801       Zr808   2.371   1_554  S
O802       Zr807   2.395   1_554  S
O802       Zr808   2.379   1_554  S
O802        H837   0.966   1_554  S
O803       Zr806   2.402   1_455  S
O803       Zr823   2.405       .  S
O803        H840   0.965       .  S
O804       Zr807   2.386   1_554  S
O804       Zr823   2.378       .  S
Zr805       O830   2.441       .  S
Zr805       O824   2.482       .  S
Zr805       O832   2.412       .  S
Zr805       O820   2.468       .  S
Zr805       O811   2.412   1_655  S
Zr805       O812   2.419   1_556  S
Zr805       O813   2.376   1_556  S
Zr805       O814   2.386   1_655  S
Zr806       O825   2.436       .  S
Zr806       O818   2.435       .  S
Zr806       O819   2.420       .  S
Zr806       O812   2.393       .  S
Zr806       O813   2.400       .  S
Zr807       O809   2.436       .  S
Zr807       O831   2.436       .  S
Zr807       O833   2.463       .  S
Zr807       O811   2.383       .  S
Zr807       O814   2.388       .  S
Zr808       O834   2.436       .  S
Zr808       O835   2.436   1_455  S
Zr808       O810   2.438   1_456  S
Zr808       O811   2.391       .  S
Zr808       O812   2.404   1_456  S
O809        H846   0.990       .  S
O810        H841   0.990       .  S
O810        H855   0.990       .  S
O812        H838   0.962       .  S
O813       Zr823   2.390   1_655  S
O814       Zr823   2.385   1_556  S
O814        H839   0.967       .  S
C815       C1336   1.513       .  S
C816       C1105   1.481       .  S
C817       C1204   1.479       .  S
O818        H854   0.991       .  S
O819        C821   1.280       .  A
O820        C821   1.288   1_556  A
C821       C1093   1.485       .  S
O822       Zr823   2.438       .  S
O822        H851   0.990       .  S
Zr823       O826   2.436       .  S
Zr823       O827   2.440       .  S
Zr823       O828   2.414   1_554  S
O824        C829   1.291   1_655  A
O825        H842   0.990       .  S
O825        H857   0.990       .  S
O826        H843   0.990       .  S
O827        H847   0.990   1_554  S
O827        H856   0.990       .  S
O828        C829   1.280       .  A
C829       C1117   1.499       .  S
O830        H849   0.989       .  S
O830        H853   0.990       .  S
O831        H845   0.990       .  S
O831        H852   0.990       .  S
O832        C836   1.280   1_655  A
O833        C836   1.291       .  A
O834        H844   0.990       .  S
O835        H848   0.990       .  S
C836       C1213   1.479       .  S
Zr859       O860   2.440       .  S
Zr859       O861   2.436       .  S
Zr859       O862   2.467       .  S
Zr859       O865   2.452       .  S
Zr859       O867   2.392       .  S
Zr859       O868   2.398       .  S
Zr859       O869   2.422       .  S
Zr859       O870   2.395       .  S
O860        H916   0.990       .  S
O860        H924   0.990       .  S
O861        C881   1.282       .  A
O862        C883   1.286       .  A
O863       Zr873   2.432       .  S
O863        C882   1.286   1_556  A
O864       Zr872   2.411       .  S
O864        C883   1.274       .  A
O865        C882   1.289       .  A
O866       Zr874   2.445       .  S
O866        C881   1.285       .  A
O867       Zr872   2.413       .  S
O867       Zr874   2.371       .  S
O868       Zr873   2.405   1_554  S
O868       Zr874   2.371       .  S
O868        H903   0.965   1_554  S
O869       Zr872   2.406       .  S
O869       Zr889   2.376       .  S
O869        H906   0.967       .  S
O870       Zr873   2.402   1_554  S
O870       Zr889   2.375       .  S
Zr871       O896   2.445       .  S
Zr871       O890   2.492       .  S
Zr871       O898   2.415       .  S
Zr871       O886   2.435   1_556  S
Zr871       O877   2.409       .  S
Zr871       O878   2.429   1_556  S
Zr871       O879   2.371   1_556  S
Zr871       O880   2.380       .  S
Zr872       O891   2.437       .  S
Zr872       O884   2.434       .  S
Zr872       O885   2.439       .  S
Zr872       O878   2.385       .  S
Zr872       O879   2.392       .  S
Zr873       O875   2.436       .  S
Zr873       O897   2.439       .  S
Zr873       O899   2.487       .  S
Zr873       O877   2.361       .  S
Zr873       O880   2.395       .  S
Zr874       O900   2.435   1_554  S
Zr874       O901   2.435   1_554  S
Zr874       O876   2.437       .  S
Zr874       O877   2.391   1_554  S
Zr874       O878   2.403       .  S
O875        H912   0.990       .  S
O876        H907   0.990       .  S
O876        H921   0.990       .  S
O878        H904   0.961       .  S
O879       Zr889   2.391       .  S
O880       Zr889   2.397   1_556  S
O880        H905   0.965       .  S
C881       C1300   1.489       .  S
C882       C1096   1.484       .  S
C883       C1261   1.491       .  S
O884        H920   0.991       .  S
O885        C887   1.285       .  A
O886        C887   1.282       .  A
C887       C1108   1.477       .  S
O888       Zr889   2.436       .  S
O888        H917   0.990       .  S
Zr889       O892   2.436       .  S
Zr889       O893   2.439       .  S
Zr889       O894   2.370       .  S
O890        C895   1.293   1_556  A
O891        H908   0.990       .  S
O891        H923   0.989       .  S
O892        H909   0.990       .  S
O893        H913   0.990       .  S
O893        H922   0.990       .  S
O894        C895   1.270       .  A
C895       C1081   1.477   1_554  S
O896        H915   0.990       .  S
O896        H919   0.990       .  S
O897        H911   0.990       .  S
O897        H918   0.990       .  S
O898        C902   1.280       .  A
O899        C902   1.295       .  A
O900        H910   0.990       .  S
O901        H914   0.990       .  S
C902       C1276   1.495       .  S
Zr925       O926   2.440   1_556  S
Zr925       O927   2.495       .  S
Zr925       O928   2.450   1_556  S
Zr925       O931   2.452       .  S
Zr925       O933   2.374       .  S
Zr925       O934   2.383       .  S
Zr925       O935   2.423   1_556  S
Zr925       O936   2.424       .  S
O926        H982   0.990       .  S
O926        H990   0.990       .  S
O927        C947   1.293       .  A
O928        C949   1.287       .  A
O929       Zr939   2.407       .  S
O929        C948   1.281       .  A
O930       Zr938   2.474       .  S
O930        C949   1.293       .  A
O931        C948   1.287       .  A
O932       Zr940   2.362       .  S
O932        C947   1.269       .  A
O933       Zr938   2.394   1_556  S
O933       Zr940   2.397       .  S
O934       Zr939   2.394       .  S
O934       Zr940   2.373       .  S
O934        H969   0.967       .  S
O935       Zr938   2.392       .  S
O935       Zr955   2.372   1_554  S
O935        H972   0.962       .  S
O936       Zr939   2.382       .  S
O936       Zr955   2.404       .  S
Zr937       O962   2.440       .  S
Zr937       O956   2.459       .  S
Zr937       O964   2.499       .  S
Zr937       O952   2.476       .  S
Zr937       O943   2.399       .  S
Zr937       O944   2.419       .  S
Zr937       O945   2.393       .  S
Zr937       O946   2.396       .  S
Zr938       O957   2.436       .  S
Zr938       O950   2.435       .  S
Zr938       O951   2.423   1_554  S
Zr938       O944   2.415   1_554  S
Zr938       O945   2.404   1_554  S
Zr939       O941   2.436       .  S
Zr939       O963   2.440       .  S
Zr939       O965   2.389       .  S
Zr939       O943   2.391       .  S
Zr939       O946   2.402       .  S
Zr940       O966   2.436       .  S
Zr940       O967   2.434       .  S
Zr940       O942   2.437       .  S
Zr940       O943   2.372       .  S
Zr940       O944   2.367       .  S
O941        H978   0.990       .  S
O942        H973   0.990       .  S
O942        H987   0.990       .  S
O944        H970   0.964       .  S
O945       Zr955   2.374       .  S
O946       Zr955   2.370       .  S
O946        H971   0.965       .  S
C947       C1084   1.481       .  S
C948       C1057   1.486       .  S
C949       C1129   1.496       .  S
O950        H986   0.990       .  S
O951        C953   1.285       .  A
O952        C953   1.293       .  A
C953       C1072   1.499       .  S
O954       Zr955   2.439   1_554  S
O954        H983   0.991       .  S
Zr955       O958   2.441   1_556  S
Zr955       O959   2.435       .  S
Zr955       O960   2.419       .  S
O956        C961   1.288       .  A
O957        H974   0.990       .  S
O957        H989   0.990       .  S
O958        H975   0.990       .  S
O959        H979   0.989       .  S
O959        H988   0.989       .  S
O960        C961   1.280       .  A
C961       C1396   1.493       .  S
O962        H981   0.990       .  S
O962        H985   0.991       .  S
O963        H977   0.990       .  S
O963        H984   0.990       .  S
O964        C968   1.296       .  A
O965        C968   1.276       .  A
O966        H976   0.990       .  S
O967        H980   0.990       .  S
C968       C1144   1.484       .  S
Zr991       O992   2.441   1_556  S
Zr991       O993   2.446       .  S
Zr991       O994   2.476   1_556  S
Zr991       O997   2.452       .  S
Zr991       O999   2.390       .  S
Zr991      O1000   2.398       .  S
Zr991      O1001   2.423   1_556  S
Zr991      O1002   2.401       .  S
O992       H1048   0.990       .  S
O992       H1056   0.990       .  S
O993       C1013   1.285       .  A
O994       C1015   1.287       .  A
O995      Zr1005   2.420       .  S
O995       C1014   1.282       .  A
O996      Zr1004   2.415       .  S
O996       C1015   1.275   1_455  A
O997       C1014   1.288       .  A
O998      Zr1006   2.417       .  S
O998       C1013   1.281       .  A
O999      Zr1004   2.410   1_656  S
O999      Zr1006   2.375       .  S
O1000     Zr1005   2.396       .  S
O1000     Zr1006   2.371       .  S
O1000      H1035   0.965       .  S
O1001     Zr1004   2.401   1_655  S
O1001     Zr1021   2.375   1_554  S
O1001      H1038   0.965       .  S
O1002     Zr1005   2.400       .  S
O1002     Zr1021   2.375       .  S
Zr1003     O1028   2.441       .  S
Zr1003     O1022   2.505       .  S
Zr1003     O1030   2.435       .  S
Zr1003     O1018   2.454       .  S
Zr1003     O1009   2.409   1_455  S
Zr1003     O1010   2.431       .  S
Zr1003     O1011   2.373       .  S
Zr1003     O1012   2.387   1_455  S
Zr1004     O1023   2.436       .  S
Zr1004     O1016   2.435       .  S
Zr1004     O1017   2.434   1_554  S
Zr1004     O1010   2.388   1_554  S
Zr1004     O1011   2.389   1_554  S
Zr1005     O1007   2.437       .  S
Zr1005     O1029   2.441       .  S
Zr1005     O1031   2.458       .  S
Zr1005     O1009   2.373       .  S
Zr1005     O1012   2.389       .  S
Zr1006     O1032   2.436       .  S
Zr1006     O1033   2.435   1_655  S
Zr1006     O1008   2.436   1_655  S
Zr1006     O1009   2.384       .  S
Zr1006     O1010   2.391   1_655  S
O1007      H1044   0.990       .  S
O1008      H1039   0.990       .  S
O1008      H1053   0.990       .  S
O1010      H1036   0.962       .  S
O1011     Zr1021   2.395   1_455  S
O1012     Zr1021   2.395       .  S
O1012      H1037   0.965       .  S
C1013      C1348   1.489       .  S
C1014      C1060   1.469       .  S
C1015      C1177   1.499       .  S
O1016      H1052   0.991       .  S
O1017      C1019   1.284       .  A
O1018      C1019   1.286       .  A
C1019      C1069   1.478       .  S
O1020     Zr1021   2.442   1_554  S
O1020      H1049   0.990       .  S
Zr1021     O1024   2.438   1_556  S
Zr1021     O1025   2.441       .  S
Zr1021     O1026   2.366       .  S
O1022      C1027   1.295   1_455  A
O1023      H1040   0.990       .  S
O1023      H1055   0.989       .  S
O1024      H1041   0.990       .  S
O1025      H1045   0.990       .  S
O1025      H1054   0.990       .  S
O1026      C1027   1.272       .  A
C1027      C1120   1.490       .  S
O1028      H1047   0.990       .  S
O1028      H1051   0.991       .  S
O1029      H1043   0.990       .  S
O1029      H1050   0.990       .  S
O1030      C1034   1.283   1_455  A
O1031      C1034   1.290       .  A
O1032      H1042   0.989       .  S
O1033      H1046   0.990       .  S
C1034      C1192   1.483       .  S
C1057      C1058   1.408       .  A
C1057      C1062   1.416       .  A
C1058      C1059   1.396       .  A
C1058      H1067   1.084       .  S
C1059      C1060   1.411       .  A
C1059      S1063   1.807       .  S
C1060      C1061   1.402       .  A
C1061      C1062   1.401       .  A
C1061      H1068   1.084       .  S
C1062      S1064   1.801       .  S
S1063      H1066   1.402       .  S
S1064      H1065   1.408       .  S
C1069      C1070   1.407       .  A
C1069      C1074   1.406       .  A
C1070      C1071   1.407       .  A
C1070      H1079   1.084       .  S
C1071      C1072   1.419       .  A
C1071      S1075   1.801       .  S
C1072      C1073   1.413       .  A
C1073      C1074   1.395       .  A
C1073      H1080   1.083       .  S
C1074      S1076   1.805   1_556  S
S1075      H1078   1.408       .  S
S1076      H1077   1.407   1_554  S
C1081      C1082   1.399       .  A
C1081      C1086   1.418   1_556  A
C1082      C1083   1.400       .  A
C1082      H1091   1.084       .  S
C1083      C1084   1.418       .  A
C1083      S1087   1.805       .  S
C1084      C1085   1.403   1_556  A
C1085      C1086   1.405       .  A
C1085      H1092   1.084       .  S
C1086      S1088   1.805       .  S
S1087      H1090   1.407       .  S
S1088      H1089   1.407       .  S
C1093      C1094   1.407       .  A
C1093      C1098   1.415   1_554  A
C1094      C1095   1.404       .  A
C1094      H1103   1.084       .  S
C1095      C1096   1.416       .  A
C1095      S1099   1.803       .  S
C1096      C1097   1.402   1_554  A
C1097      C1098   1.397       .  A
C1097      H1104   1.084       .  S
C1098      S1100   1.800       .  S
S1099      H1102   1.406       .  S
S1100      H1101   1.404       .  S
C1105      C1106   1.401   1_554  A
C1105      C1110   1.419       .  A
C1106      C1107   1.396       .  A
C1106      H1115   1.084       .  S
C1107      C1108   1.417   1_556  A
C1107      S1111   1.800       .  S
C1108      C1109   1.400       .  A
C1109      C1110   1.399       .  A
C1109      H1116   1.084       .  S
C1110      S1112   1.802       .  S
S1111      H1114   1.405       .  S
S1112      H1113   1.405       .  S
C1117      C1118   1.413       .  A
C1117      C1122   1.413   1_455  A
C1118      C1119   1.405       .  A
C1118      H1127   1.084       .  S
C1119      C1120   1.409   1_455  A
C1119      S1123   1.800       .  S
C1120      C1121   1.412       .  A
C1121      C1122   1.408       .  A
C1121      H1128   1.083       .  S
C1122      S1124   1.807       .  S
S1123      H1126   1.407       .  S
S1124      H1125   1.407       .  S
C1129      C1130   1.407       .  A
C1129      C1134   1.416       .  A
C1130      C1131   1.406       .  A
C1130      H1139   1.084       .  S
C1131      C1132   1.420       .  A
C1131      S1135   1.803       .  S
C1132      C1133   1.408       .  A
C1133      C1134   1.406       .  A
C1133      H1140   1.084       .  S
C1134      S1136   1.802       .  S
S1135      H1138   1.406       .  S
S1136      H1137   1.408       .  S
C1141      C1142   1.407       .  A
C1141      C1146   1.422       .  A
C1142      C1143   1.404       .  A
C1142      H1151   1.084       .  S
C1143      C1144   1.416       .  A
C1143      S1147   1.805       .  S
C1144      C1145   1.401       .  A
C1145      C1146   1.406       .  A
C1145      H1152   1.084       .  S
C1146      S1148   1.799       .  S
S1147      H1150   1.407       .  S
S1148      H1149   1.407       .  S
C1153      C1154   1.406       .  A
C1153      C1158   1.411       .  A
C1154      C1155   1.405       .  A
C1154      H1163   1.084       .  S
C1155      C1156   1.418       .  A
C1155      S1159   1.797       .  S
C1156      C1157   1.413       .  A
C1157      C1158   1.395       .  A
C1157      H1164   1.083       .  S
C1158      S1160   1.804       .  S
S1159      H1162   1.405       .  S
S1160      H1161   1.406       .  S
C1165      C1166   1.410       .  A
C1165      C1170   1.416       .  A
C1166      C1167   1.404       .  A
C1166      H1175   1.083       .  S
C1167      C1168   1.407       .  A
C1167      S1171   1.807       .  S
C1168      C1169   1.402       .  A
C1169      C1170   1.401       .  A
C1169      H1176   1.084       .  S
C1170      S1172   1.802       .  S
S1171      H1174   1.407       .  S
S1172      H1173   1.407       .  S
C1177      C1178   1.413   1_655  A
C1177      C1182   1.415       .  A
C1178      C1179   1.400       .  A
C1178      H1187   1.081       .  S
C1179      C1180   1.410       .  A
C1179      S1183   1.803       .  S
C1180      C1181   1.412   1_455  A
C1181      C1182   1.404       .  A
C1181      H1188   1.084       .  S
C1182      S1184   1.801       .  S
S1183      H1186   1.408       .  S
S1184      H1185   1.407       .  S
C1189      C1190   1.401       .  A
C1189      C1194   1.412   1_455  A
C1190      C1191   1.402       .  A
C1190      H1199   1.084       .  S
C1191      C1192   1.417   1_455  A
C1191      S1195   1.803       .  S
C1192      C1193   1.405       .  A
C1193      C1194   1.400       .  A
C1193      H1200   1.084       .  S
C1194      S1196   1.804       .  S
S1195      H1198   1.407   1_455  S
S1196      H1197   1.407   1_655  S
C1201      C1202   1.403       .  A
C1201      C1206   1.415   1_655  A
C1202      C1203   1.400       .  A
C1202      H1211   1.084       .  S
C1203      C1204   1.416   1_655  A
C1203      S1207   1.803       .  S
C1204      C1205   1.403       .  A
C1205      C1206   1.399       .  A
C1205      H1212   1.084       .  S
C1206      S1208   1.806       .  S
S1207      H1210   1.407       .  S
S1208      H1209   1.407   1_455  S
C1213      C1214   1.404       .  A
C1213      C1218   1.418   1_455  A
C1214      C1215   1.403       .  A
C1214      H1223   1.084       .  S
C1215      C1216   1.414   1_455  A
C1215      S1219   1.806       .  S
C1216      C1217   1.396       .  A
C1217      C1218   1.394       .  A
C1217      H1224   1.085       .  S
C1218      S1220   1.804       .  S
S1219      H1222   1.407   1_455  S
S1220      H1221   1.407       .  S
C1225      C1226   1.415       .  A
C1225      C1230   1.413   1_655  A
C1226      C1227   1.409       .  A
C1226      H1235   1.083       .  S
C1227      C1228   1.409       .  A
C1227      S1231   1.805       .  S
C1228      C1229   1.413   1_655  A
C1229      C1230   1.410       .  A
C1229      H1236   1.083       .  S
C1230      S1232   1.806       .  S
S1231      H1234   1.407       .  S
S1232      H1233   1.407       .  S
C1237      C1238   1.409       .  A
C1237      C1242   1.414       .  A
C1238      C1239   1.400       .  A
C1238      H1247   1.084       .  S
C1239      C1240   1.410       .  A
C1239      S1243   1.802       .  S
C1240      C1241   1.403       .  A
C1241      C1242   1.395       .  A
C1241      H1248   1.084       .  S
C1242      S1244   1.802       .  S
S1243      H1246   1.407       .  S
S1244      H1245   1.407       .  S
C1249      C1250   1.411       .  A
C1249      C1254   1.409       .  A
C1250      C1251   1.403       .  A
C1250      H1259   1.084       .  S
C1251      C1252   1.411       .  A
C1251      S1255   1.804       .  S
C1252      C1253   1.410       .  A
C1253      C1254   1.399       .  A
C1253      H1260   1.084       .  S
C1254      S1256   1.803       .  S
S1255      H1258   1.406       .  S
S1256      H1257   1.407       .  S
C1261      C1262   1.411       .  A
C1261      C1266   1.412       .  A
C1262      C1263   1.397       .  A
C1262      H1271   1.081       .  S
C1263      C1264   1.408       .  A
C1263      S1267   1.803       .  S
C1264      C1265   1.412       .  A
C1265      C1266   1.403       .  A
C1265      H1272   1.084       .  S
C1266      S1268   1.802       .  S
S1267      H1270   1.408       .  S
S1268      H1269   1.408       .  S
C1273      C1274   1.406       .  A
C1273      C1278   1.411       .  A
C1274      C1275   1.406       .  A
C1274      H1283   1.083       .  S
C1275      C1276   1.414       .  A
C1275      S1279   1.807       .  S
C1276      C1277   1.412       .  A
C1277      C1278   1.404       .  A
C1277      H1284   1.084       .  S
C1278      S1280   1.803       .  S
S1279      H1282   1.406       .  S
S1280      H1281   1.404       .  S
C1285      C1286   1.399       .  A
C1285      C1290   1.421       .  A
C1286      C1287   1.400       .  A
C1286      H1295   1.084       .  S
C1287      C1288   1.420       .  A
C1287      S1291   1.804       .  S
C1288      C1289   1.401       .  A
C1289      C1290   1.405       .  A
C1289      H1296   1.084       .  S
C1290      S1292   1.805       .  S
S1291      H1294   1.407       .  S
S1292      H1293   1.407       .  S
C1297      C1298   1.406       .  A
C1297      C1302   1.419       .  A
C1298      C1299   1.406       .  A
C1298      H1307   1.084       .  S
C1299      C1300   1.417       .  A
C1299      S1303   1.803       .  S
C1300      C1301   1.403       .  A
C1301      C1302   1.402       .  A
C1301      H1308   1.084   1_554  S
C1302      S1304   1.803   1_554  S
S1303      H1306   1.407       .  S
S1304      H1305   1.407       .  S
C1309      C1310   1.413       .  A
C1309      C1314   1.417   1_455  A
C1310      C1311   1.396   1_455  A
C1310      H1319   1.083       .  S
C1311      C1312   1.405       .  A
C1311      S1315   1.806       .  S
C1312      C1313   1.405       .  A
C1313      C1314   1.411       .  A
C1313      H1320   1.083       .  S
C1314      S1316   1.805   1_654  S
S1315      H1318   1.405       .  S
S1316      H1317   1.407   1_455  S
C1321      C1322   1.403       .  A
C1321      C1326   1.406       .  A
C1322      C1323   1.410       .  A
C1322      H1331   1.083       .  S
C1323      C1324   1.418       .  A
C1323      S1327   1.804       .  S
C1324      C1325   1.410       .  A
C1325      C1326   1.391       .  A
C1325      H1332   1.083       .  S
C1326      S1328   1.806       .  S
S1327      H1330   1.407       .  S
S1328      H1329   1.406       .  S
C1333      C1334   1.408       .  A
C1333      C1338   1.420       .  A
C1334      C1335   1.407       .  A
C1334      H1343   1.084       .  S
C1335      C1336   1.424       .  A
C1335      S1339   1.802       .  S
C1336      C1337   1.409       .  A
C1337      C1338   1.409       .  A
C1337      H1344   1.083       .  S
C1338      S1340   1.799       .  S
S1339      H1342   1.407       .  S
S1340      H1341   1.406       .  S
C1345      C1346   1.407       .  A
C1345      C1350   1.414       .  A
C1346      C1347   1.399       .  A
C1346      H1355   1.084       .  S
C1347      C1348   1.417       .  A
C1347      S1351   1.803       .  S
C1348      C1349   1.408       .  A
C1349      C1350   1.400       .  A
C1349      H1356   1.084       .  S
C1350      S1352   1.802       .  S
S1351      H1354   1.404       .  S
S1352      H1353   1.408       .  S
C1357      C1358   1.403       .  A
C1357      C1362   1.418   1_554  A
C1358      C1359   1.403   1_565  A
C1358      H1367   1.084       .  S
C1359      C1360   1.419       .  A
C1359      S1363   1.803       .  S
C1360      C1361   1.402   1_554  A
C1361      C1362   1.400   1_545  A
C1361      H1368   1.084       .  S
C1362      S1364   1.804       .  S
S1363      H1366   1.407       .  S
S1364      H1365   1.407       .  S
C1369      C1370   1.399       .  A
C1369      C1374   1.414   1_556  A
C1370      C1371   1.400       .  A
C1370      H1379   1.084       .  S
C1371      C1372   1.419       .  A
C1371      S1375   1.802       .  S
C1372      C1373   1.401   1_556  A
C1373      C1374   1.400       .  A
C1373      H1380   1.083       .  S
C1374      S1376   1.808       .  S
S1375      H1378   1.407       .  S
S1376      H1377   1.406       .  S
C1381      C1382   1.406       .  A
C1381      C1386   1.415   1_556  A
C1382      C1383   1.398       .  A
C1382      H1391   1.084       .  S
C1383      C1384   1.415   1_455  A
C1383      S1387   1.802   1_455  S
C1384      C1385   1.406   1_656  A
C1385      C1386   1.401       .  A
C1385      H1392   1.084   1_455  S
C1386      S1388   1.801       .  S
S1387      H1390   1.405       .  S
S1388      H1389   1.407       .  S
C1393      C1394   1.405       .  A
C1393      C1398   1.416       .  A
C1394      C1395   1.401       .  A
C1394      H1403   1.084       .  S
C1395      C1396   1.417       .  A
C1395      S1399   1.802       .  S
C1396      C1397   1.406       .  A
C1397      C1398   1.410       .  A
C1397      H1404   1.083       .  S
C1398      S1400   1.807       .  S
S1399      H1402   1.407       .  S
S1400      H1401   1.407       .  S
C1405      C1406   1.399       .  A
C1405      C1410   1.421       .  A
C1406      C1407   1.408   1_565  A
C1406      H1415   1.083       .  S
C1407      C1408   1.422       .  A
C1407      S1411   1.807       .  S
C1408      C1409   1.401       .  A
C1409      C1410   1.406   1_545  A
C1409      H1416   1.084       .  S
C1410      S1412   1.804       .  S
S1411      H1414   1.407   1_545  S
S1412      H1413   1.408       .  S
C1417      C1418   1.408       .  A
C1417      C1422   1.415       .  A
C1418      C1419   1.406       .  A
C1418      H1427   1.081       .  S
C1419      C1420   1.414       .  A
C1419      S1423   1.800       .  S
C1420      C1421   1.407       .  A
C1421      C1422   1.401       .  A
C1421      H1428   1.084       .  S
C1422      S1424   1.802       .  S
S1423      H1426   1.407       .  S
S1424      H1425   1.407       .  S
C1429      C1430   1.412       .  A
C1429      C1434   1.412       .  A
C1430      C1431   1.405       .  A
C1430      H1439   1.084       .  S
C1431      C1432   1.414       .  A
C1431      S1435   1.799       .  S
C1432      C1433   1.417       .  A
C1433      C1434   1.406       .  A
C1433      H1440   1.081       .  S
C1434      S1436   1.809       .  S
S1435      H1438   1.407       .  S
S1436      H1437   1.406       .  S
C1441      C1442   1.403       .  A
C1441      C1446   1.410       .  A
C1442      C1443   1.405       .  A
C1442      H1451   1.083       .  S
C1443      C1444   1.418       .  A
C1443      S1447   1.807       .  S
C1444      C1445   1.410       .  A
C1445      C1446   1.401       .  A
C1445      H1452   1.084       .  S
C1446      S1448   1.804       .  S
S1447      H1450   1.406       .  S
S1448      H1449   1.406       .  S
C1453      C1454   1.402       .  A
C1453      C1458   1.409       .  A
C1454      C1455   1.404       .  A
C1454      H1463   1.083       .  S
C1455      C1456   1.421       .  A
C1455      S1459   1.808       .  S
C1456      C1457   1.409       .  A
C1457      C1458   1.395       .  A
C1457      H1464   1.084       .  S
C1458      S1460   1.804       .  S
S1459      H1462   1.406       .  S
S1460      H1461   1.408       .  S
C1465      C1466   1.405       .  A
C1465      C1470   1.413       .  A
C1466      C1467   1.400   1_455  A
C1466      H1475   1.084       .  S
C1467      C1468   1.416       .  A
C1467      S1471   1.801       .  S
C1468      C1469   1.405       .  A
C1469      C1470   1.390   1_655  A
C1469      H1476   1.084       .  S
C1470      S1472   1.804       .  S
S1471      H1474   1.408       .  S
S1472      H1473   1.407       .  S
C1477      C1478   1.408       .  A
C1477      C1482   1.416       .  A
C1478      C1479   1.408       .  A
C1478      H1487   1.084       .  S
C1479      C1480   1.416       .  A
C1479      S1483   1.803       .  S
C1480      C1481   1.404       .  A
C1481      C1482   1.399       .  A
C1481      H1488   1.084       .  S
C1482      S1484   1.804       .  S
S1483      H1486   1.406       .  S
S1484      H1485   1.407       .  S
C1489      C1490   1.411       .  A
C1489      C1494   1.408       .  A
C1490      C1491   1.405       .  A
C1490      H1499   1.081       .  S
C1491      C1492   1.416       .  A
C1491      S1495   1.809       .  S
C1492      C1493   1.417       .  A
C1493      C1494   1.402       .  A
C1493      H1500   1.083       .  S
C1494      S1496   1.803       .  S
S1495      H1498   1.406       .  S
S1496      H1497   1.407       .  S
C1501      C1502   1.414       .  A
C1501      C1506   1.411       .  A
C1502      C1503   1.411       .  A
C1502      H1511   1.082       .  S
C1503      C1504   1.411       .  A
C1503      S1507   1.805       .  S
C1504      C1505   1.414       .  A
C1505      C1506   1.397       .  A
C1505      H1512   1.083       .  S
C1506      S1508   1.800       .  S
S1507      H1510   1.407       .  S
S1508      H1509   1.405       .  S
C1513      C1514   1.406       .  A
C1513      C1518   1.421       .  A
C1514      C1515   1.408       .  A
C1514      H1523   1.084       .  S
C1515      C1516   1.419       .  A
C1515      S1519   1.801       .  S
C1516      C1517   1.408       .  A
C1517      C1518   1.416       .  A
C1517      H1524   1.083       .  S
C1518      S1520   1.808       .  S
S1519      H1522   1.407       .  S
S1520      H1521   1.407       .  S
C1525      C1526   1.404       .  A
C1525      C1530   1.415       .  A
C1526      C1527   1.396       .  A
C1526      H1535   1.083       .  S
C1527      C1528   1.414       .  A
C1527      S1531   1.805       .  S
C1528      C1529   1.406       .  A
C1529      C1530   1.404       .  A
C1529      H1536   1.084       .  S
C1530      S1532   1.804       .  S
S1531      H1534   1.407       .  S
S1532      H1533   1.407       .  S
C1537      C1538   1.410       .  A
C1537      C1542   1.415       .  A
C1538      C1539   1.400       .  A
C1538      H1547   1.083       .  S
C1539      C1540   1.414       .  A
C1539      S1543   1.800       .  S
C1540      C1541   1.410       .  A
C1541      C1542   1.402       .  A
C1541      H1548   1.084       .  S
C1542      S1544   1.801       .  S
S1543      H1546   1.407       .  S
S1544      H1545   1.407       .  S
C1549      C1550   1.413       .  A
C1549      C1554   1.409       .  A
C1550      C1551   1.407   1_565  A
C1550      H1559   1.084       .  S
C1551      C1552   1.409       .  A
C1551      S1555   1.797       .  S
C1552      C1553   1.415       .  A
C1553      C1554   1.405   1_545  A
C1553      H1560   1.084       .  S
C1554      S1556   1.800       .  S
S1555      H1558   1.407       .  S
S1556      H1557   1.405       .  S
C1561      C1562   1.406       .  A
C1561      C1566   1.415   1_455  A
C1562      C1563   1.406   1_455  A
C1562      H1571   1.083       .  S
C1563      C1564   1.413       .  A
C1563      S1567   1.807       .  S
C1564      C1565   1.406       .  A
C1565      C1566   1.399       .  A
C1565      H1572   1.084       .  S
C1566      S1568   1.803   1_655  S
S1567      H1570   1.407       .  S
S1568      H1569   1.406       .  S
C1573      C1574   1.405       .  A
C1573      C1578   1.412       .  A
C1574      C1575   1.403       .  A
C1574      H1583   1.084       .  S
C1575      C1576   1.419       .  A
C1575      S1579   1.801       .  S
C1576      C1577   1.409       .  A
C1577      C1578   1.402       .  A
C1577      H1584   1.083       .  S
C1578      S1580   1.803       .  S
S1579      H1582   1.407       .  S
S1580      H1581   1.407       .  S
C1585      C1586   1.410       .  A
C1585      C1590   1.417       .  A
C1586      C1587   1.404       .  A
C1586      H1595   1.084       .  S
C1587      C1588   1.417       .  A
C1587      S1591   1.804       .  S
C1588      C1589   1.409       .  A
C1589      C1590   1.407       .  A
C1589      H1596   1.084       .  S
C1590      S1592   1.802       .  S
S1591      H1594   1.407       .  S
S1592      H1593   1.407       .  S
C1597      C1598   1.410       .  A
C1597      C1602   1.412       .  A
C1598      C1599   1.395       .  A
C1598      H1607   1.077       .  S
C1599      C1600   1.406       .  A
C1599      S1603   1.804       .  S
C1600      C1601   1.409       .  A
C1601      C1602   1.400       .  A
C1601      H1608   1.084       .  S
C1602      S1604   1.802       .  S
S1603      H1606   1.407       .  S
S1604      H1605   1.407       .  S
C1609      C1610   1.403       .  A
C1609      C1614   1.409       .  A
C1610      C1611   1.395       .  A
C1610      H1619   1.085       .  S
C1611      C1612   1.417       .  A
C1611      S1615   1.800       .  S
C1612      C1613   1.413       .  A
C1613      C1614   1.402       .  A
C1613      H1620   1.083       .  S
C1614      S1616   1.803       .  S
S1615      H1618   1.404       .  S
S1616      H1617   1.405       .  S
C1621      C1622   1.402       .  A
C1621      C1626   1.421       .  A
C1622      C1623   1.404   1_565  A
C1622      H1631   1.084       .  S
C1623      C1624   1.418       .  A
C1623      S1627   1.803       .  S
C1624      C1625   1.402       .  A
C1625      C1626   1.403   1_545  A
C1625      H1632   1.084       .  S
C1626      S1628   1.805       .  S
S1627      H1630   1.407       .  S
S1628      H1629   1.406       .  S
