geometry optimzed in LAMMPS
_audit_creation_date              2020-12-01 
_audit_creation_method            'lammps2cif' 
_symmetry_space_group_name_H-M    'P1' 
_symmetry_Int_Tables_number       1 
_symmetry_cell_setting            triclinic 
loop_ 
_symmetry_equiv_pos_as_xyz 
  x,y,z 
_cell_length_a                    44.10447263 
_cell_length_b                    45.07193787151603 
_cell_length_c                    45.614127323216884 
_cell_angle_alpha                 89.97711012882883 
_cell_angle_beta                  90.00525107684335 
_cell_angle_gamma                 89.94622488225235 
loop_ 
_atom_site_label 
_atom_site_type_symbol 
_atom_site_fract_x 
_atom_site_fract_y 
_atom_site_fract_z 
_atom_site_charge 
Zn1        Zn  0.60082416  0.16777000  0.84925939     1.49700
Zn2        Zn  0.64691120  0.17410771  0.90276270     1.49400
Zn3        Zn  0.60452161  0.11883430  0.89953085     1.49100
Zn4        Zn  0.65942991  0.12510127  0.85424932     1.49500
O5          O  0.62775435  0.14639413  0.87606183    -1.80000
O6          O  0.61058039  0.21216722  0.85222882    -0.70600
O7          O  0.64212256  0.16264756  0.94521750    -0.70400
O8          O  0.56033746  0.12298075  0.89254765    -0.70000
O9          O  0.63243809  0.21515124  0.89623709    -0.70600
O10         O  0.55621813  0.15733529  0.85766153    -0.70200
O11         O  0.61267540  0.12265142  0.94286524    -0.70800
O12         O  0.65664550  0.08024311  0.86142677    -0.70200
O13         O  0.69045556  0.17955392  0.89269523    -0.71000
O14         O  0.61313680  0.07804865  0.88621864    -0.70400
O15         O  0.70086848  0.14600567  0.85835714    -0.70800
O16         O  0.65002599  0.12649019  0.81160621    -0.70700
O17         O  0.60852484  0.15425681  0.80747738    -0.70500
C18         C  0.62275623  0.22715316  0.87287831     0.81300
C19         C  0.62778707  0.14155516  0.95749913     0.81800
C20         C  0.54446147  0.13814668  0.87487721     0.80700
C21         C  0.63414406  0.06571324  0.87171542     0.81100
C22         C  0.70837174  0.16837954  0.87397451     0.82200
C23         C  0.62898770  0.13781881  0.79633194     0.81300
Zn24       Zn  0.65948508  0.37564656  0.85137634     1.49700
Zn25       Zn  0.64364395  0.42486237  0.89940255     1.49400
Zn26       Zn  0.59994339  0.41697733  0.84343210     1.49100
Zn27       Zn  0.60247870  0.36946547  0.89539733     1.49500
O28         O  0.62639654  0.39661272  0.87184258    -1.80000
O29         O  0.70078649  0.39688340  0.85929940    -0.70600
O30         O  0.63092371  0.46548698  0.88972522    -0.70400
O31         O  0.60938702  0.40250741  0.80205561    -0.70000
O32         O  0.68814324  0.42879379  0.89447698    -0.70600
O33         O  0.65156718  0.37591077  0.80752475    -0.70200
O34         O  0.60817473  0.46194394  0.84615634    -0.70800
O35         O  0.55890161  0.37152636  0.88532265    -0.70200
O36         O  0.63464094  0.41619869  0.94173370    -0.71000
O37         O  0.55512186  0.40578697  0.85035096    -0.70400
O38         O  0.60663729  0.37539955  0.93906599    -0.70800
O39         O  0.61379034  0.32854834  0.88568558    -0.70700
O40         O  0.65718509  0.33090740  0.86067344    -0.70500
C41         C  0.70752229  0.41796951  0.87700063     0.81300
C42         C  0.62038337  0.47721313  0.86663225     0.81800
C43         C  0.63042200  0.38629885  0.79151770     0.80700
C44         C  0.54326477  0.38625865  0.86713028     0.81100
C45         C  0.61988987  0.39539198  0.95391647     0.82200
C46         C  0.63552236  0.31616059  0.87232330     0.81300
Zn47       Zn  0.64833002  0.08130849  0.65749893     1.49700
Zn48       Zn  0.65872285  0.12676344  0.60455593     1.49400
Zn49       Zn  0.60084343  0.08271495  0.60391050     1.49100
Zn50       Zn  0.60329713  0.13403479  0.65041773     1.49500
O51         O  0.62794805  0.10628597  0.62854417    -1.80000
O52         O  0.69196633  0.07575889  0.64727894    -0.70600
O53         O  0.64803533  0.12229139  0.56139944    -0.70400
O54         O  0.61025951  0.03927267  0.61125720    -0.70000
O55         O  0.70064260  0.10569562  0.60940575    -0.70600
O56         O  0.63475284  0.03941492  0.65411898    -0.70200
O57         O  0.60937815  0.09058041  0.56123720    -0.70800
O58         O  0.55958674  0.13171438  0.64097152    -0.70200
O59         O  0.65658507  0.17205462  0.61303003    -0.71000
O60         O  0.55603577  0.09427530  0.60947021    -0.70400
O61         O  0.61437393  0.17439050  0.63986810    -0.70800
O62         O  0.60917599  0.13174761  0.69359085    -0.70700
O63         O  0.64408414  0.09660859  0.69921868    -0.70500
C64         C  0.70914316  0.08513726  0.62700341     0.81300
C65         C  0.62825964  0.10698107  0.54781144     0.81800
C66         C  0.62375730  0.02586246  0.63215857     0.80700
C67         C  0.54407484  0.11541634  0.62408920     0.81100
C68         C  0.63565920  0.18681169  0.62602523     0.82200
C69         C  0.62692911  0.11674945  0.70965653     0.81300
Zn70       Zn  0.60271213  0.33515318  0.65018448     1.49700
Zn71       Zn  0.60621694  0.38402440  0.59915827     1.49400
Zn72       Zn  0.66063505  0.37837371  0.64575374     1.49100
Zn73       Zn  0.64926493  0.32997099  0.59637881     1.49500
O74         O  0.62944026  0.35699066  0.62341557    -1.80000
O75         O  0.55819362  0.34687737  0.64233545    -0.70600
O76         O  0.61672904  0.42499905  0.60951669    -0.70400
O77         O  0.65050220  0.37777178  0.68868683    -0.70000
O78         O  0.56231727  0.38151254  0.60769643    -0.70600
O79         O  0.61096074  0.34748462  0.69281706    -0.70200
O80         O  0.65900557  0.42273538  0.63629299    -0.70800
O81         O  0.69243765  0.32459509  0.60683362    -0.70200
O82         O  0.61258271  0.37856404  0.55583241    -0.71000
O83         O  0.70199004  0.35734872  0.64212396    -0.70400
O84         O  0.64517043  0.34103064  0.55397596    -0.70800
O85         O  0.63478740  0.28910777  0.60145129    -0.70700
O86         O  0.61152822  0.29041521  0.64488456    -0.70500
C87         C  0.54650932  0.36653244  0.62553723     0.81300
C88         C  0.63778122  0.43738423  0.62384070     0.81800
C89         C  0.63039847  0.36504305  0.70412634     0.80700
C90         C  0.70992304  0.33547569  0.62603489     0.81100
C91         C  0.62903311  0.36061337  0.54142918     0.82200
C92         C  0.62398818  0.27619683  0.62377163     0.81300
Zn93       Zn  0.35105892  0.08089616  0.84281422     1.49700
Zn94       Zn  0.34004541  0.12639574  0.89580831     1.49400
Zn95       Zn  0.39919513  0.08389080  0.89563911     1.49100
Zn96       Zn  0.39392798  0.13511883  0.84887110     1.49500
O97         O  0.37093901  0.10660576  0.87138005    -1.80000
O98         O  0.30779954  0.07521088  0.85319194    -0.70600
O99         O  0.35083933  0.12136340  0.93883701    -0.70400
O100        O  0.39035816  0.04007185  0.88901977    -0.70000
O101        O  0.29828254  0.10567824  0.89044539    -0.70600
O102        O  0.36533835  0.03918440  0.84646093    -0.70200
O103        O  0.39152551  0.09209825  0.93868821    -0.70800
O104        O  0.43822263  0.13247673  0.85522090    -0.70200
O105        O  0.34145768  0.17169227  0.88829155    -0.71000
O106        O  0.44351530  0.09608608  0.88778026    -0.70400
O107        O  0.38344443  0.17504804  0.86126466    -0.70800
O108        O  0.38500207  0.13417481  0.80618936    -0.70700
O109        O  0.35345257  0.09615487  0.80105691    -0.70500
C110        C  0.29019912  0.08498402  0.87289096     0.81300
C111        C  0.37165106  0.10726540  0.95229830     0.81800
C112        C  0.37682378  0.02611009  0.86850061     0.80700
C113        C  0.45465377  0.11662809  0.87175380     0.81100
C114        C  0.36217698  0.18691168  0.87561639     0.82200
C115        C  0.36807515  0.11799529  0.79047141     0.81300
Zn116      Zn  0.35144190  0.33061212  0.90655940     1.49700
Zn117      Zn  0.39590589  0.38372296  0.90086581     1.49400
Zn118      Zn  0.39577148  0.33398829  0.85120511     1.49100
Zn119      Zn  0.33876141  0.37849497  0.85726450     1.49500
O120        O  0.37064873  0.35688309  0.87846683    -1.80000
O121        O  0.35783387  0.34240611  0.94822740    -0.70600
O122        O  0.43926082  0.38056075  0.88947610    -0.70400
O123        O  0.38600770  0.28975354  0.85695049    -0.70000
O124        O  0.39150335  0.37888431  0.94459343    -0.70600
O125        O  0.36463597  0.28929770  0.90129544    -0.70200
O126        O  0.44084985  0.34445728  0.85620784    -0.70800
O127        O  0.34809729  0.37798774  0.81409565    -0.70200
O128        O  0.38529230  0.42480669  0.89068122    -0.71000
O129        O  0.38664357  0.34647364  0.80930429    -0.70400
O130        O  0.34128055  0.42299200  0.86662712    -0.70800
O131        O  0.29719009  0.35760978  0.86267030    -0.70700
O132        O  0.30758796  0.32600455  0.89876425    -0.70500
C133        C  0.37494764  0.36172525  0.95982834     0.81300
C134        C  0.45375038  0.36473690  0.87125689     0.81800
C135        C  0.37412431  0.27600560  0.87863002     0.80700
C136        C  0.36774871  0.36481421  0.79842961     0.81100
C137        C  0.36346253  0.43744264  0.87766689     0.82200
C138        C  0.28948193  0.33648566  0.87988699     0.81300
Zn139      Zn  0.39851655  0.16942835  0.59806365     1.49700
Zn140      Zn  0.39434162  0.11971795  0.64621166     1.49400
Zn141      Zn  0.35044595  0.17367511  0.65042406     1.49100
Zn142      Zn  0.33997160  0.12576191  0.59993549     1.49500
O143        O  0.37074433  0.14710177  0.62308828    -1.80000
O144        O  0.44308936  0.15782010  0.60534520    -0.70600
O145        O  0.38579757  0.12258938  0.68887060    -0.70400
O146        O  0.36498656  0.21517319  0.64585509    -0.70000
O147        O  0.43847842  0.12234556  0.63893664    -0.70600
O148        O  0.38948262  0.21343890  0.60306479    -0.70200
O149        O  0.35247695  0.15944008  0.69257173    -0.70800
O150        O  0.29823787  0.14689069  0.60338290    -0.70200
O151        O  0.38405520  0.07908493  0.63566950    -0.71000
O152        O  0.30742774  0.17942852  0.63892875    -0.70400
O153        O  0.34144485  0.08080828  0.60946277    -0.70800
O154        O  0.35097821  0.12864809  0.55716597    -0.70700
O155        O  0.39040724  0.15948647  0.55586389    -0.70500
C156        C  0.45456603  0.13771077  0.62168444     0.81300
C157        C  0.36803165  0.13859346  0.70394042     0.81800
C158        C  0.37616850  0.22781735  0.62343162     0.80700
C159        C  0.29009469  0.16873965  0.61947919     0.81100
C160        C  0.36261248  0.06633808  0.62234150     0.82200
C161        C  0.37115210  0.14293899  0.54313853     0.81300
Zn162      Zn  0.34175984  0.37783998  0.60588110     1.49700
Zn163      Zn  0.40075898  0.41961070  0.60487717     1.49400
Zn164      Zn  0.35451894  0.42317472  0.65923763     1.49100
Zn165      Zn  0.39627921  0.36812877  0.65191724     1.49500
O166        O  0.37315721  0.39711395  0.63003297    -1.80000
O167        O  0.35075888  0.38387710  0.56254842    -0.70600
O168        O  0.39041021  0.46328140  0.60957463    -0.70400
O169        O  0.31040507  0.42705598  0.65173345    -0.70000
O170        O  0.39320686  0.41045382  0.56204314    -0.70600
O171        O  0.30024109  0.39781923  0.61363275    -0.70200
O172        O  0.36631932  0.46547435  0.65256523    -0.70800
O173        O  0.38790613  0.36850993  0.69508634    -0.70200
O174        O  0.44531453  0.40862489  0.61310169    -0.71000
O175        O  0.35995218  0.40903013  0.70139903    -0.70400
O176        O  0.44048562  0.37169413  0.64519643    -0.70800
O177        O  0.38613219  0.32833068  0.63812807    -0.70700
O178        O  0.34386091  0.33244777  0.61159573    -0.70500
C179        C  0.37215597  0.39666520  0.54873173     0.81300
C180        C  0.37655594  0.47777646  0.62950315     0.81800
C181        C  0.29233314  0.41753374  0.63232368     0.80700
C182        C  0.37318971  0.38607012  0.71152939     0.81100
C183        C  0.45671357  0.38806489  0.62897903     0.82200
C184        C  0.36490617  0.31689536  0.62333496     0.81300
Zn185      Zn  0.85124821  0.04558419  0.65658491     1.49700
Zn186      Zn  0.84104605  0.99929199  0.60450987     1.49400
Zn187      Zn  0.89909645  0.04361625  0.60347002     1.49100
Zn188      Zn  0.89620580  0.49274319  0.65055282     1.49500
O189        O  0.87178630  0.02023358  0.62812758    -1.80000
O190        O  0.80776699  0.05092092  0.64627291    -0.70600
O191        O  0.85114588  0.00438641  0.56139268    -0.70400
O192        O  0.88921179  0.08714951  0.61021676    -0.70000
O193        O  0.79869864  0.01966595  0.60960044    -0.70600
O194        O  0.86486109  0.08729019  0.65312089    -0.70200
O195        O  0.89057346  0.03524270  0.56069295    -0.70800
O196        O  0.94020964  0.49645761  0.64333681    -0.70200
O197        O  0.84422982  0.45388374  0.61274065    -0.71000
O198        O  0.94409272  0.03286069  0.61067571    -0.70400
O199        O  0.88660277  0.45217518  0.63939585    -0.70800
O200        O  0.88875162  0.49482224  0.69338497    -0.70700
O201        O  0.85494267  0.03104050  0.69834879    -0.70500
C202        C  0.79031222  0.04072530  0.62665732     0.81300
C203        C  0.87098416  0.01936566  0.54753507     0.81800
C204        C  0.87574147  0.10069449  0.63104391     0.80700
C205        C  0.95603145  0.01272020  0.62670285     0.81100
C206        C  0.86553365  0.43942388  0.62553927     0.82200
C207        C  0.87133402  0.01051612  0.70910166     0.81300
Zn208      Zn  0.85072343  0.29689727  0.59652319     1.49700
Zn209      Zn  0.89852422  0.29041010  0.64915648     1.49400
Zn210      Zn  0.83960752  0.24821224  0.64583114     1.49100
Zn211      Zn  0.89262626  0.24232275  0.59744695     1.49500
O212        O  0.87065545  0.26929258  0.62287972    -1.80000
O213        O  0.86641669  0.33731271  0.60103023    -0.70600
O214        O  0.89134756  0.27743831  0.69204703    -0.70400
O215        O  0.79810963  0.26938223  0.64249704    -0.70000
O216        O  0.88997944  0.33545593  0.64430619    -0.70600
O217        O  0.80811001  0.30291537  0.60804031    -0.70200
O218        O  0.85066902  0.24850420  0.68870648    -0.70800
O219        O  0.88236638  0.20147880  0.60829975    -0.70200
O220        O  0.94269976  0.27818850  0.63947453    -0.71000
O221        O  0.84086054  0.20386245  0.63618507    -0.70400
O222        O  0.93695549  0.24460252  0.60405680    -0.70800
O223        O  0.88402870  0.24761566  0.55431076    -0.70700
O224        O  0.85242121  0.28592594  0.55403234    -0.86500
C225        C  0.87755296  0.34996998  0.62332081     0.81300
C226        C  0.87166328  0.26035352  0.70374964     0.81800
C227        C  0.79040766  0.29167376  0.62681398     0.80700
C228        C  0.86166769  0.18916294  0.62314947     0.81100
C229        C  0.95359414  0.25897183  0.62168479     0.82200
C230        C  0.86724685  0.26593514  0.54070111     0.81300
Zn231      Zn  0.85023184  0.20556041  0.89983043     1.49700
Zn232      Zn  0.89565671  0.25700206  0.89560813     1.49400
Zn233      Zn  0.89677913  0.20766769  0.84547083     1.49100
Zn234      Zn  0.83997900  0.25308870  0.84980855     1.49500
O235        O  0.87087984  0.23092574  0.87192437    -1.80000
O236        O  0.85482371  0.21742489  0.94172997    -0.70600
O237        O  0.93908383  0.25384688  0.88597209    -0.70400
O238        O  0.88660048  0.16322612  0.85240383    -0.70000
O239        O  0.89072552  0.25173006  0.93895997    -0.70600
O240        O  0.86354701  0.16436830  0.89598798    -0.70200
O241        O  0.94206773  0.21790081  0.85266006    -0.70800
O242        O  0.85101696  0.25293189  0.80674326    -0.70200
O243        O  0.88526467  0.29808672  0.88680445    -0.71000
O244        O  0.88876487  0.22032287  0.80271557    -0.70400
O245        O  0.84233009  0.29727916  0.86091496    -0.70800
O246        O  0.79781759  0.23266833  0.85387111    -0.70700
O247        O  0.80686868  0.20120505  0.89039559    -0.70500
C248        C  0.87283521  0.23561545  0.95377798     0.81300
C249        C  0.95440710  0.23786729  0.86863450     0.81800
C250        C  0.87404339  0.15024639  0.87427965     0.80700
C251        C  0.87064545  0.23926461  0.79137960     0.81100
C252        C  0.86381922  0.31122059  0.87376327     0.82200
C253        C  0.78938179  0.21177371  0.87105035     0.81300
Zn254      Zn  0.85169855  0.45560667  0.84763080     1.49700
Zn255      Zn  0.89613926  0.00796541  0.85499036     1.49400
Zn256      Zn  0.83974867  0.00113837  0.89991476     1.49100
Zn257      Zn  0.89799583  0.45686551  0.90212795     1.49500
O258        O  0.87128140  0.48049446  0.87695501    -1.80000
O259        O  0.85545464  0.47088977  0.80639712    -0.70600
O260        O  0.88483852  0.04831348  0.86477233    -0.70400
O261        O  0.79769802  0.48089248  0.89299358    -0.70000
O262        O  0.89038708  0.00587185  0.81174108    -0.70600
O263        O  0.80815228  0.44999854  0.85637490    -0.70200
O264        O  0.84210885  0.04638733  0.89084507    -0.70800
O265        O  0.88781249  0.46445055  0.94478463    -0.70200
O266        O  0.93972153  0.00551593  0.86460261    -0.71000
O267        O  0.84897783  0.49610702  0.94352431    -0.70400
O268        O  0.94300065  0.46891036  0.89713639    -0.70800
O269        O  0.88939865  0.41316403  0.89369794    -0.70700
O270        O  0.86582537  0.41419599  0.85036847    -0.70500
C271        C  0.87237683  0.49101629  0.79586297     0.81300
C272        C  0.86309909  0.06093388  0.87773572     0.81800
C273        C  0.78991006  0.46021379  0.87525057     0.80700
C274        C  0.86830278  0.48067393  0.95770312     0.81100
C275        C  0.95512363  0.48957916  0.88194065     0.82200
C276        C  0.87666216  0.40017524  0.87207369     0.81300
Zn277      Zn  0.16000112  0.99935760  0.89576164     1.49700
Zn278      Zn  0.10321096  0.49289081  0.85160997     1.49400
Zn279      Zn  0.10218564  0.04302884  0.89987968     1.49100
Zn280      Zn  0.14707333  0.04650982  0.84437541     1.49500
O281        O  0.12825870  0.02038923  0.87332467    -1.80000
O282        O  0.15732031  0.45429085  0.88778116    -0.70600
O283        O  0.05953736  0.49594382  0.86175851    -0.70400
O284        O  0.11222788  0.03352742  0.94181912    -0.70000
O285        O  0.11380039  0.45245597  0.86296161    -0.70600
O286        O  0.15190946  0.00317016  0.93923839    -0.70200
O287        O  0.05720962  0.03173870  0.89525729    -0.70800
O288        O  0.13430685  0.08864162  0.85075694    -0.70200
O289        O  0.10919934  0.49477378  0.80802958    -0.71000
O290        O  0.11180390  0.08677472  0.89458490    -0.70400
O291        O  0.14146759  0.03214410  0.80204207    -0.70800
O292        O  0.19111581  0.05122057  0.85307587    -0.70700
O293        O  0.20148786  0.01990522  0.88948518    -0.70500
C294        C  0.13542842  0.43981004  0.87617948     0.81300
C295        C  0.04465583  0.01147137  0.87991730     0.81800
C296        C  0.13229601  0.01747859  0.95399098     0.80700
C297        C  0.12464247  0.10115742  0.87395318     0.81100
C298        C  0.12561168  0.01092727  0.79166714     0.82200
C299        C  0.20915361  0.04100179  0.87224589     0.81300
Zn300      Zn  0.09838932  0.29205188  0.89516392     1.49700
Zn301      Zn  0.10645758  0.24153497  0.84811971     1.49400
Zn302      Zn  0.14757112  0.29747196  0.84368329     1.49100
Zn303      Zn  0.15897268  0.25102412  0.89572263     1.49500
O304        O  0.12795081  0.27051727  0.87126337    -1.80000
O305        O  0.05441302  0.27974033  0.88495405    -0.70600
O306        O  0.11691298  0.24338491  0.80587515    -0.70400
O307        O  0.13409261  0.33901685  0.84973253    -0.70000
O308        O  0.06184898  0.24381103  0.85231270    -0.70600
O309        O  0.10736612  0.33628786  0.89117984    -0.70200
O310        O  0.14446209  0.28440853  0.80148447    -0.70800
O311        O  0.20061666  0.27175619  0.89025815    -0.70200
O312        O  0.11670035  0.20161231  0.86122705    -0.71000
O313        O  0.19104102  0.30243079  0.85316721    -0.70400
O314        O  0.15781157  0.20553298  0.88934881    -0.70800
O315        O  0.14797379  0.25647123  0.93836039    -0.70700
O316        O  0.10497338  0.28244862  0.93799460    -0.70500
C317        C  0.04434189  0.25934872  0.86806196     0.81300
C318        C  0.13193741  0.26158134  0.79049143     0.81800
C319        C  0.12197597  0.35109887  0.87197212     0.80700
C320        C  0.20869029  0.29246212  0.87270839     0.81100
C321        C  0.13746619  0.19001739  0.87649690     0.82200
C322        C  0.12594513  0.26879512  0.95163697     0.81300
Zn323      Zn  0.15736029  0.25290760  0.59907312     1.49700
Zn324      Zn  0.10079360  0.20696501  0.59890941     1.49400
Zn325      Zn  0.14956565  0.20674723  0.65130988     1.49100
Zn326      Zn  0.10326327  0.25777163  0.64650391     1.49500
O327        O  0.12769822  0.23116515  0.62314794    -1.80000
O328        O  0.14696157  0.24764560  0.55604712    -0.70600
O329        O  0.11074511  0.16356413  0.60766381    -0.70400
O330        O  0.19207191  0.20106048  0.63884285    -0.70000
O331        O  0.10972413  0.21427945  0.55561571    -0.70600
O332        O  0.20013506  0.23368127  0.60313103    -0.70200
O333        O  0.13539176  0.16525667  0.65041448    -0.70800
O334        O  0.11220574  0.25615449  0.68913081    -0.70200
O335        O  0.05573960  0.21816151  0.60598733    -0.71000
O336        O  0.14896521  0.22266972  0.69255804    -0.70400
O337        O  0.05928665  0.25331322  0.64003469    -0.70800
O338        O  0.11184010  0.29860581  0.63561685    -0.70700
O339        O  0.15364953  0.29793805  0.60809729    -0.70500
C340        C  0.12831959  0.23120407  0.54226316     0.81300
C341        C  0.12426666  0.15091478  0.62906722     0.81800
C342        C  0.20897995  0.21210858  0.61928145     0.80700
C343        C  0.13188096  0.24221563  0.70395699     0.81100
C344        C  0.04363451  0.23761939  0.62273420     0.82200
C345        C  0.13252016  0.31185553  0.62166766     0.81300
Zn346      Zn  0.10199051  0.46026750  0.65019754     1.49700
Zn347      Zn  0.10663693  0.00912421  0.60009992     1.49400
Zn348      Zn  0.16110488  0.00309518  0.64657112     1.49100
Zn349      Zn  0.14978524  0.45507004  0.59741146     1.49500
O350        O  0.12968516  0.48193538  0.62426923    -1.80000
O351        O  0.05755885  0.47245553  0.64184647    -0.70600
O352        O  0.11687933  0.04976890  0.61081983    -0.70400
O353        O  0.15019905  0.50231224  0.68937355    -0.70000
O354        O  0.06243502  0.00674902  0.60707151    -0.70600
O355        O  0.10996564  0.47264974  0.69279170    -0.70200
O356        O  0.15949945  0.04762001  0.63705285    -0.70800
O357        O  0.19286701  0.44915830  0.60760687    -0.70200
O358        O  0.11456354  0.50476163  0.55722929    -0.71000
O359        O  0.20288500  0.48219495  0.64244187    -0.70400
O360        O  0.14698557  0.46708561  0.55553588    -0.70800
O361        O  0.13437477  0.41459185  0.60144245    -0.70700
O362        O  0.10973530  0.41536625  0.64419496    -0.70500
C363        C  0.04619441  0.49194037  0.62465675     0.81300
C364        C  0.13814141  0.06221730  0.62471379     0.81800
C365        C  0.12944387  0.49000233  0.70438339     0.80700
C366        C  0.21075087  0.46032130  0.62624715     0.81100
C367        C  0.13154484  0.48717087  0.54304871     0.82200
C368        C  0.12229679  0.40140106  0.62295440     0.81300
Zn369      Zn  0.39823344  0.08707130  0.15284897     1.49700
Zn370      Zn  0.39561175  0.13362029  0.09981198     1.49400
Zn371      Zn  0.35307213  0.07867129  0.09821481     1.49100
Zn372      Zn  0.33978754  0.12889182  0.14561924     1.49500
O373        O  0.37185665  0.10726201  0.12447106    -1.80000
O374        O  0.44288884  0.09790167  0.14550765    -0.70600
O375        O  0.38890263  0.12723021  0.05605957    -0.70400
O376        O  0.36693389  0.03798354  0.10707333    -0.70000
O377        O  0.43980955  0.13080148  0.10914684    -0.70600
O378        O  0.38893927  0.04250787  0.15092344    -0.70200
O379        O  0.35871748  0.08777680  0.05515978    -0.70800
O380        O  0.29843208  0.10766179  0.14121359    -0.70200
O381        O  0.38546046  0.17494623  0.11053583    -0.71000
O382        O  0.30928066  0.07386150  0.10724720    -0.70400
O383        O  0.34238305  0.17321484  0.13620545    -0.70800
O384        O  0.34841844  0.12929728  0.18887348    -0.70700
O385        O  0.38962332  0.10147107  0.19435979    -0.70500
C386        C  0.45512321  0.11665299  0.12814377     0.81300
C387        C  0.37366833  0.10789883  0.04201078     0.81800
C388        C  0.37669809  0.02683645  0.13080449     0.80700
C389        C  0.29108213  0.08524421  0.12556936     0.81100
C390        C  0.36435061  0.18758304  0.12469359     0.82200
C391        C  0.36909973  0.11826315  0.20487255     0.81300
Zn392      Zn  0.39471994  0.38495654  0.10727380     1.49700
Zn393      Zn  0.39727486  0.33521726  0.15671150     1.49400
Zn394      Zn  0.33853105  0.37863235  0.15167689     1.49100
Zn395      Zn  0.35156299  0.33077851  0.10235494     1.49500
O396        O  0.37060241  0.35747131  0.13007553    -1.80000
O397        O  0.43843347  0.38220935  0.11668984    -0.70600
O398        O  0.38833914  0.34727580  0.19866875    -0.70400
O399        O  0.34104462  0.42355786  0.14354474    -0.70000
O400        O  0.44203779  0.34659915  0.15029187    -0.70600
O401        O  0.38418127  0.42573705  0.11814796    -0.70200
O402        O  0.34804279  0.37683814  0.19462322    -0.70800
O403        O  0.30769162  0.32628916  0.11010668    -0.70200
O404        O  0.38915131  0.29058345  0.15146596    -0.71000
O405        O  0.29676501  0.35793596  0.14598747    -0.70400
O406        O  0.36494080  0.28965407  0.10853878    -0.70800
O407        O  0.35819225  0.34191278  0.06039209    -0.70700
O408        O  0.38954863  0.38031606  0.06378970    -0.70500
C409        C  0.45400243  0.36669326  0.13428623     0.81300
C410        C  0.36848184  0.36436112  0.20990727     0.81800
C411        C  0.36284359  0.43819316  0.13201280     0.80700
C412        C  0.28929728  0.33678094  0.12871257     0.81100
C413        C  0.37642028  0.27655313  0.13045254     0.82200
C414        C  0.37420164  0.36207381  0.04866334     0.81300
Zn415      Zn  0.35204077  0.17399180  0.39998683     1.49700
Zn416      Zn  0.39399563  0.11910826  0.39576624     1.49400
Zn417      Zn  0.33813473  0.12585593  0.35073561     1.49100
Zn418      Zn  0.39726008  0.16826119  0.34543268     1.49500
O419        O  0.37042293  0.14665308  0.37237394    -1.80000
O420        O  0.35779140  0.16295290  0.44203452    -0.70600
O421        O  0.38398532  0.07841628  0.38400370    -0.70400
O422        O  0.29651309  0.14679788  0.35739359    -0.70000
O423        O  0.38749650  0.12324887  0.43935129    -0.70600
O424        O  0.30828739  0.17928022  0.39229516    -0.70200
O425        O  0.34086896  0.08081032  0.35854192    -0.70800
O426        O  0.38854129  0.15560844  0.30336822    -0.70200
O427        O  0.43798085  0.12232097  0.38749811    -0.71000
O428        O  0.34709458  0.12772944  0.30741866    -0.70400
O429        O  0.44194550  0.15693291  0.35288398    -0.70800
O430        O  0.38900823  0.21302332  0.35007992    -0.70700
O431        O  0.36639594  0.21471752  0.39379531    -0.70500
C432        C  0.37255354  0.14212982  0.45415665     0.81300
C433        C  0.36275857  0.06608234  0.36988426     0.81800
C434        C  0.28946980  0.16840275  0.37434443     0.80700
C435        C  0.36804546  0.13929772  0.29206900     0.81100
C436        C  0.45377096  0.13745723  0.36976529     0.82200
C437        C  0.37707953  0.22743097  0.37130780     0.81300
Zn438      Zn  0.35292614  0.42543806  0.40260666     1.49700
Zn439      Zn  0.34018123  0.37489042  0.35559846     1.49400
Zn440      Zn  0.39832227  0.41713296  0.34836501     1.49100
Zn441      Zn  0.39572497  0.37046514  0.40129230     1.49500
O442        O  0.37201332  0.39680983  0.37664007    -1.80000
O443        O  0.30934577  0.43048217  0.39267017    -0.70600
O444        O  0.34928745  0.37403677  0.31270577    -0.70400
O445        O  0.38919409  0.46177098  0.35029808    -0.70000
O446        O  0.29898937  0.39636949  0.35887963    -0.70600
O447        O  0.36696115  0.46616409  0.39403886    -0.70200
O448        O  0.38964936  0.40291285  0.30702905    -0.70800
O449        O  0.43979168  0.37276140  0.39149108    -0.70200
O450        O  0.34245735  0.33064285  0.36523124    -0.71000
O451        O  0.44285715  0.40567841  0.35514041    -0.70400
O452        O  0.38557129  0.32908335  0.39080354    -0.70800
O453        O  0.38905417  0.37717531  0.44499607    -0.70700
O454        O  0.35806821  0.41612470  0.44573814    -0.70500
C455        C  0.29150453  0.41905951  0.37405597     0.81300
C456        C  0.36962057  0.38552897  0.29669204     0.81800
C457        C  0.37684479  0.47740193  0.37040071     0.80700
C458        C  0.45500909  0.38661284  0.37223733     0.81100
C459        C  0.36450654  0.31634870  0.37671232     0.82200
C460        C  0.37336137  0.39625099  0.45896393     0.81300
Zn461      Zn  0.60173101  0.16805082  0.15519556     1.49700
Zn462      Zn  0.66055516  0.12528475  0.15078161     1.49400
Zn463      Zn  0.60535561  0.11868086  0.10501181     1.49100
Zn464      Zn  0.64807209  0.17312583  0.10109491     1.49500
O465        O  0.62875780  0.14621246  0.12855343    -1.80000
O466        O  0.61004015  0.15562473  0.19761203    -0.70600
O467        O  0.65827515  0.08051997  0.14291131    -0.70400
O468        O  0.56117434  0.12203489  0.11291433    -0.70000
O469        O  0.65106739  0.12710513  0.19375899    -0.70600
O470        O  0.55703986  0.15687833  0.14727826    -0.70200
O471        O  0.61543757  0.07799231  0.11702111    -0.70800
O472        O  0.64278407  0.16192631  0.05885534    -0.70200
O473        O  0.70226087  0.14567615  0.14539385    -0.71000
O474        O  0.61243742  0.12271587  0.06142374    -0.70400
O475        O  0.69178039  0.17774819  0.10972908    -0.70800
O476        O  0.63429589  0.21418621  0.10717567    -0.70700
O477        O  0.61032778  0.21273806  0.15024864    -0.70500
C478        C  0.63030621  0.13904063  0.20902618     0.81300
C479        C  0.63661221  0.06575685  0.13136145     0.81800
C480        C  0.54526767  0.13736674  0.13042432     0.80700
C481        C  0.62785209  0.14126736  0.04665724     0.81100
C482        C  0.70994130  0.16696621  0.12840735     0.82200
C483        C  0.62302500  0.22702298  0.12934910     0.81300
Zn484      Zn  0.65990195  0.37520793  0.14449226     1.49700
Zn485      Zn  0.60152013  0.41732189  0.15353496     1.49400
Zn486      Zn  0.64450587  0.42507318  0.09743720     1.49100
Zn487      Zn  0.60189247  0.36994733  0.10189552     1.49500
O488        O  0.62691424  0.39672940  0.12468412    -1.80000
O489        O  0.65240222  0.37484933  0.18801219    -0.70600
O490        O  0.61115975  0.46166096  0.15170584    -0.70400
O491        O  0.68914530  0.42899200  0.10287512    -0.70000
O492        O  0.61100812  0.40234797  0.19427050    -0.70600
O493        O  0.70114021  0.39638708  0.13764649    -0.70200
O494        O  0.63212765  0.46598036  0.10737844    -0.70800
O495        O  0.60586018  0.37606461  0.05813110    -0.70200
O496        O  0.55647614  0.40735144  0.14793054    -0.71000
O497        O  0.63530166  0.41599770  0.05518781    -0.70400
O498        O  0.55841971  0.37270667  0.11322108    -0.70800
O499        O  0.61268866  0.32873444  0.11199495    -0.70700
O500        O  0.65713768  0.33069638  0.13527674    -0.70500
C501        C  0.63171817  0.38551102  0.20428634     0.81300
C502        C  0.62300560  0.47720909  0.13129741     0.81800
C503        C  0.70814749  0.41793158  0.12064206     0.80700
C504        C  0.61981352  0.39557478  0.04316778     0.81100
C505        C  0.54372176  0.38777891  0.13190357     0.82200
C506        C  0.63468145  0.31617418  0.12486926     0.81300
Zn507      Zn  0.60309683  0.13225069  0.40047266     1.49700
Zn508      Zn  0.64431426  0.07633193  0.40259088     1.49400
Zn509      Zn  0.60025889  0.08598720  0.34751074     1.49100
Zn510      Zn  0.65956969  0.12669822  0.35559752     1.49500
O511        O  0.62676845  0.10549741  0.37614822    -1.80000
O512        O  0.61033957  0.12667807  0.44416475    -0.70600
O513        O  0.63034530  0.03590955  0.39287832    -0.70400
O514        O  0.55577687  0.09726899  0.35460853    -0.70000
O515        O  0.63803102  0.08547170  0.44538595    -0.70600
O516        O  0.55886571  0.12953905  0.39146867    -0.70200
O517        O  0.60865367  0.04120901  0.34895338    -0.70800
O518        O  0.65187601  0.12667034  0.31193960    -0.70200
O519        O  0.68849868  0.07177847  0.39573407    -0.71000
O520        O  0.60916696  0.10110305  0.30645417    -0.70400
O521        O  0.70115706  0.10605924  0.36283269    -0.70800
O522        O  0.65641731  0.17126599  0.36407776    -0.70700
O523        O  0.61298340  0.17336366  0.38908699    -0.70500
C524        C  0.62454328  0.10667404  0.45833256     0.81300
C525        C  0.62041418  0.02513416  0.36906054     0.81800
C526        C  0.54358551  0.11583537  0.37217092     0.80700
C527        C  0.63042056  0.11698840  0.29599463     0.81100
C528        C  0.70787605  0.08378190  0.37904225     0.82200
C529        C  0.63421407  0.18580199  0.37498527     0.81300
Zn530      Zn  0.65984531  0.37741253  0.34962499     1.49700
Zn531      Zn  0.60432291  0.38260923  0.39461736     1.49400
Zn532      Zn  0.60127501  0.33404337  0.34380944     1.49100
Zn533      Zn  0.64734152  0.32822700  0.39780481     1.49500
O534        O  0.62804453  0.35560701  0.37085906    -1.80000
O535        O  0.65629595  0.42220451  0.35744185    -0.70600
O536        O  0.56029201  0.37868863  0.38706295    -0.70400
O537        O  0.61045658  0.34674524  0.30184216    -0.70000
O538        O  0.61310614  0.42364657  0.38278206    -0.70600
O539        O  0.65119197  0.37551104  0.30663796    -0.70200
O540        O  0.55649921  0.34540272  0.35120415    -0.70800
O541        O  0.63330624  0.28737767  0.39149052    -0.70200
O542        O  0.61198372  0.37840152  0.43794078    -0.71000
O543        O  0.60950834  0.28922300  0.34835766    -0.70400
O544        O  0.64240861  0.33914088  0.44003802    -0.70800
O545        O  0.69098267  0.32355448  0.38904051    -0.70700
O546        O  0.70187141  0.35759646  0.35535832    -0.70500
C547        C  0.63406297  0.43644414  0.36867685     0.81300
C548        C  0.54457192  0.36416100  0.36879570     0.81800
C549        C  0.63086575  0.36346285  0.29096102     0.80700
C550        C  0.62201356  0.27473646  0.36924057     0.81100
C551        C  0.62761507  0.35979001  0.45243156     0.82200
C552        C  0.70940550  0.33542841  0.37131639     0.81300
Zn553      Zn  0.89980716  0.04357568  0.40214951     1.49700
Zn554      Zn  0.84005574  0.00133770  0.40090279     1.49400
Zn555      Zn  0.85260671  0.04726847  0.34861562     1.49100
Zn556      Zn  0.89484163  0.49237639  0.35542821     1.49500
O557        O  0.87167368  0.02115979  0.37739098    -1.80000
O558        O  0.89154266  0.03440396  0.44484563    -0.70600
O559        O  0.79828956  0.02160881  0.39383607    -0.70400
O560        O  0.86590249  0.08900347  0.35394285    -0.70000
O561        O  0.84963872  0.00681786  0.44407566    -0.70600
O562        O  0.89054390  0.08765821  0.39667420    -0.70200
O563        O  0.80868923  0.05212615  0.35684338    -0.70800
O564        O  0.88645896  0.49339119  0.31264520    -0.70200
O565        O  0.84173514  0.45588790  0.39389757    -0.71000
O566        O  0.85713430  0.03303999  0.30675969    -0.70400
O567        O  0.88443181  0.45243418  0.36799176    -0.70800
O568        O  0.93905840  0.49538692  0.36159943    -0.70700
O569        O  0.94449886  0.03194153  0.39389677    -0.70500
C570        C  0.87073016  0.02003015  0.45796016     0.81300
C571        C  0.79046548  0.04203221  0.37582939     0.81800
C572        C  0.87696392  0.10183441  0.37629106     0.80700
C573        C  0.87103431  0.01058845  0.29649661     0.81100
C574        C  0.86279439  0.44059194  0.38182733     0.82200
C575        C  0.95563185  0.01150833  0.37766835     0.81300
Zn576      Zn  0.89571699  0.24312162  0.35019466     1.49700
Zn577      Zn  0.83862389  0.25100536  0.39279756     1.49400
Zn578      Zn  0.89746193  0.29283843  0.39861466     1.49100
Zn579      Zn  0.85461504  0.29881137  0.34246111     1.49500
O580        O  0.87133703  0.27138740  0.37140181    -1.80000
O581        O  0.88572405  0.20289427  0.36282610    -0.70600
O582        O  0.84512554  0.25539474  0.43645465    -0.70400
O583        O  0.94223374  0.28220526  0.39292841    -0.70000
O584        O  0.84149259  0.20571091  0.38627026    -0.70600
O585        O  0.93942065  0.24680124  0.35904182    -0.70200
O586        O  0.88757279  0.28176362  0.44004161    -0.70800
O587        O  0.86687919  0.34074842  0.35105228    -0.70200
O588        O  0.79762449  0.27143857  0.38387411    -0.71000
O589        O  0.88773803  0.33662356  0.39544246    -0.70400
O590        O  0.81025777  0.30318058  0.34848348    -0.70800
O591        O  0.86177871  0.28546145  0.30023325    -0.70700
O592        O  0.88909435  0.24451949  0.30693713    -0.70500
C593        C  0.86376529  0.19076771  0.37597045     0.81300
C594        C  0.86587767  0.26747924  0.45166222     0.81800
C595        C  0.95456225  0.26234773  0.37692999     0.80700
C596        C  0.87555023  0.35204715  0.37520559     0.81100
C597        C  0.79101645  0.29257493  0.36623957     0.82200
C598        C  0.87523653  0.26252719  0.29027022     0.81300
Zn599      Zn  0.89599084  0.25833061  0.10053195     1.49700
Zn600      Zn  0.84046146  0.25311270  0.14547179     1.49400
Zn601      Zn  0.85198889  0.20477206  0.09672476     1.49100
Zn602      Zn  0.89810584  0.20912170  0.15060724     1.49500
O603        O  0.87188901  0.23142853  0.12385211    -1.80000
O604        O  0.88556764  0.29930910  0.11077492    -0.70600
O605        O  0.79912247  0.23179820  0.14227418    -0.70400
O606        O  0.85672689  0.21643795  0.05473500    -0.70000
O607        O  0.84181586  0.29733538  0.13522565    -0.70600
O608        O  0.89011641  0.25325990  0.05719686    -0.70200
O609        O  0.80854002  0.19948673  0.10658297    -0.70800
O610        O  0.88834005  0.16468061  0.14563892    -0.70200
O611        O  0.85115781  0.25353754  0.18809681    -0.71000
O612        O  0.86629851  0.16378221  0.10160052    -0.70400
O613        O  0.89013155  0.22244694  0.19261502    -0.70800
O614        O  0.94301325  0.21947731  0.14336805    -0.70700
O615        O  0.93967838  0.25521183  0.10981084    -0.70500
C616        C  0.86372985  0.31185326  0.12381511     0.81300
C617        C  0.79107410  0.21014643  0.12594475     0.81800
C618        C  0.87333621  0.23583535  0.04255379     0.80700
C619        C  0.87627858  0.15068973  0.12419400     0.81100
C620        C  0.87128801  0.24083690  0.20354041     0.82200
C621        C  0.95513122  0.23944372  0.12729279     0.81300
Zn622      Zn  0.85094005  0.45547764  0.15707476     1.49700
Zn623      Zn  0.89879806  0.45796481  0.10346354     1.49400
Zn624      Zn  0.84044976  0.00170251  0.10491525     1.49100
Zn625      Zn  0.89560433  0.00841381  0.15116747     1.49500
O626        O  0.87136633  0.48090825  0.12852212    -1.80000
O627        O  0.86469801  0.41381062  0.15322184    -0.70600
O628        O  0.88927800  0.46560181  0.06053586    -0.70400
O629        O  0.79827255  0.48185146  0.11061808    -0.70000
O630        O  0.89014448  0.41426682  0.11087399    -0.70600
O631        O  0.80739378  0.45029857  0.14706286    -0.70200
O632        O  0.84976366  0.49636327  0.06160682    -0.70800
O633        O  0.88520969  0.04889550  0.14027904    -0.70200
O634        O  0.94363979  0.46986999  0.10992379    -0.71000
O635        O  0.84326450  0.04689785  0.11301944    -0.70400
O636        O  0.93972843  0.00542446  0.14348412    -0.70800
O637        O  0.88816406  0.00622566  0.19409850    -0.70700
O638        O  0.85441219  0.47001595  0.19892907    -0.70500
C639        C  0.87647152  0.40055036  0.13147636     0.81300
C640        C  0.86933981  0.48125715  0.04751240     0.81800
C641        C  0.78987327  0.46083856  0.12766917     0.80700
C642        C  0.86415805  0.06146855  0.12618794     0.81100
C643        C  0.95553175  0.48983321  0.12616832     0.82200
C644        C  0.87061437  0.49061376  0.20975361     0.81300
Zn645      Zn  0.10681910  0.49286928  0.10042997     1.49700
Zn646      Zn  0.16052347  0.49893394  0.14823035     1.49400
Zn647      Zn  0.14890143  0.04770516  0.09897028     1.49100
Zn648      Zn  0.10116082  0.04091638  0.15164544     1.49500
O649        O  0.12921776  0.01996465  0.12536055    -1.80000
O650        O  0.11670885  0.45209741  0.11208272    -0.70600
O651        O  0.20232037  0.01992492  0.14412244    -0.70400
O652        O  0.14489300  0.03764675  0.05626190    -0.70000
O653        O  0.15871733  0.45430593  0.13927702    -0.70600
O654        O  0.11548203  0.99770935  0.05718859    -0.70200
O655        O  0.19232110  0.05226679  0.10855464    -0.70800
O656        O  0.11012173  0.08576528  0.14856194    -0.70200
O657        O  0.14942234  0.99950989  0.19109191    -0.71000
O658        O  0.13491147  0.08853471  0.10599021    -0.70400
O659        O  0.10761850  0.02704370  0.19390454    -0.70800
O660        O  0.05687165  0.02987044  0.14174787    -0.70700
O661        O  0.06231057  0.49574180  0.10684927    -0.70500
C662        C  0.13745262  0.43969230  0.12685291     0.81300
C663        C  0.21019998  0.04143581  0.12744261     0.81800
C664        C  0.13089059  0.01688760  0.04322510     0.80700
C665        C  0.12334029  0.10068170  0.12840003     0.81100
C666        C  0.12765351  0.01052428  0.20576222     0.82200
C667        C  0.04575790  0.01064328  0.12416031     0.81300
Zn668      Zn  0.14747070  0.29801887  0.09619214     1.49700
Zn669      Zn  0.10101279  0.29187675  0.14960218     1.49400
Zn670      Zn  0.10453698  0.24306936  0.09915032     1.49100
Zn671      Zn  0.15950938  0.24921069  0.14511459     1.49500
O672        O  0.12800037  0.27035519  0.12285445    -1.80000
O673        O  0.13424282  0.33913162  0.10382845    -0.70600
O674        O  0.05652248  0.28101621  0.14228521    -0.70400
O675        O  0.11041409  0.24908888  0.05549920    -0.70000
O676        O  0.11039776  0.33616640  0.14684004    -0.70600
O677        O  0.14118022  0.28812696  0.05358134    -0.70200
O678        O  0.06057532  0.24549931  0.10859551    -0.70800
O679        O  0.15744020  0.20443212  0.13692789    -0.70200
O680        O  0.10859059  0.27904101  0.19128536    -0.71000
O681        O  0.11509060  0.20198690  0.11027769    -0.70400
O682        O  0.14940718  0.25027141  0.18781344    -0.70800
O683        O  0.20079099  0.27071189  0.14142822    -0.70700
O684        O  0.19130582  0.30267657  0.10537164    -0.70500
C685        C  0.12357868  0.35108982  0.12676560     0.81300
C686        C  0.04483169  0.26081592  0.12626278     0.81800
C687        C  0.12559191  0.26810648  0.04101788     0.80700
C688        C  0.13594293  0.18967829  0.12504502     0.81100
C689        C  0.12850159  0.26228191  0.20277739     0.82200
C690        C  0.20876071  0.29230938  0.12494499     0.81300
Zn691      Zn  0.15827986  0.25268852  0.39498680     1.49700
Zn692      Zn  0.14682833  0.20791638  0.34146371     1.49400
Zn693      Zn  0.10089213  0.20829596  0.39613229     1.49100
Zn694      Zn  0.10253712  0.26018217  0.34938872     1.49500
O695        O  0.12726820  0.23241325  0.37118521    -1.80000
O696        O  0.20013298  0.23235691  0.38810253    -0.70600
O697        O  0.13338508  0.16619783  0.34413076    -0.70400
O698        O  0.11047485  0.21508338  0.43901374    -0.70000
O699        O  0.19038465  0.20270845  0.35024820    -0.70600
O700        O  0.14884441  0.24712224  0.43855368    -0.70200
O701        O  0.10956851  0.16486387  0.38729679    -0.70800
O702        O  0.05921203  0.25753918  0.35948567    -0.70200
O703        O  0.14231499  0.22310890  0.30015022    -0.71000
O704        O  0.05618728  0.22019474  0.39125974    -0.70400
O705        O  0.10750984  0.25818373  0.30593842    -0.70800
O706        O  0.11379764  0.30045895  0.35972735    -0.70700
O707        O  0.15582665  0.29801092  0.38683550    -0.70500
C708        C  0.20818652  0.21222567  0.36985965     0.81300
C709        C  0.12249579  0.15202985  0.36571007     0.81800
C710        C  0.12960645  0.23130290  0.45236829     0.80700
C711        C  0.04401704  0.24119736  0.37658957     0.81100
C712        C  0.12512752  0.24315568  0.28977349     0.82200
C713        C  0.13509162  0.31280792  0.37359799     0.81300
Zn714      Zn  0.10690595  0.01026577  0.39775438     1.49700
Zn715      Zn  0.15018222  0.45641451  0.40002825     1.49400
Zn716      Zn  0.10138365  0.46078177  0.34820776     1.49100
Zn717      Zn  0.16018673  0.00415531  0.35011170     1.49500
O718        O  0.12946624  0.48296425  0.37332639    -1.80000
O719        O  0.11578788  0.50634103  0.44050478    -0.70600
O720        O  0.13628681  0.41547484  0.39568490    -0.70400
O721        O  0.05694183  0.47178802  0.35834763    -0.70000
O722        O  0.14707521  0.46776625  0.44201148    -0.70600
O723        O  0.06263421  0.00672088  0.39236580    -0.70200
O724        O  0.11072904  0.41609218  0.35347113    -0.70800
O725        O  0.14860955  0.50226810  0.30755026    -0.70200
O726        O  0.19320825  0.45176057  0.38970929    -0.71000
O727        O  0.10781951  0.47322620  0.30535159    -0.70400
O728        O  0.20247872  0.48407362  0.35400424    -0.70800
O729        O  0.15778615  0.04885579  0.35862108    -0.70700
O730        O  0.11592927  0.05095546  0.38598956    -0.70500
C731        C  0.13217338  0.48814529  0.45460723     0.81300
C732        C  0.12429593  0.40222160  0.37418823     0.81800
C733        C  0.04593556  0.49123204  0.37580731     0.80700
C734        C  0.12736069  0.49006071  0.29312322     0.81100
C735        C  0.21077360  0.46271588  0.37068520     0.82200
C736        C  0.13654089  0.06340344  0.37118435     0.81300
C737        C  0.13405199  0.34454224  0.37422674    -0.09100
C738        C  0.12840520  0.37070250  0.37323088    -0.10700
C739        C  0.13400086  0.09481808  0.36795291    -0.09100
C740        C  0.12759558  0.12073124  0.36656779    -0.10700
C741        C  0.12702954  0.25595686  0.23347465    -0.09100
C742        C  0.12603470  0.24965800  0.25909106    -0.10700
C743        C  0.12872356  0.38223516  0.13026534    -0.09100
C744        C  0.13509598  0.40821360  0.13009783    -0.10700
C745        C  0.13336126  0.15823697  0.12932309    -0.09100
C746        C  0.12740809  0.13215576  0.13092520    -0.10700
C747        C  0.12535336  0.49638702  0.26217229    -0.09100
C748        C  0.12554962  0.00331381  0.23652531    -0.10700
C749        C  0.98750314  0.49629868  0.12462797    -0.09100
C750        C  0.01378020  0.00402273  0.12445168    -0.10700
C751        C  0.86568697  0.34333622  0.12683996    -0.09100
C752        C  0.87165156  0.36927497  0.12917408    -0.10700
C753        C  0.87155454  0.11927498  0.12556922    -0.09100
C754        C  0.86564692  0.09317116  0.12511084    -0.10700
C755        C  0.98701562  0.24574797  0.12917441    -0.09100
C756        C  0.01315518  0.25371400  0.12869144    -0.10700
C757        C  0.98627142  0.25583594  0.37953359    -0.09100
C758        C  0.01237233  0.24785123  0.37952945    -0.10700
C759        C  0.87312002  0.24843633  0.23408236    -0.09100
C760        C  0.87418600  0.25586488  0.25948416    -0.10700
C761        C  0.86345381  0.40885765  0.38311792    -0.09100
C762        C  0.86938410  0.38288042  0.38035424    -0.10700
C763        C  0.86559996  0.15919957  0.37917762    -0.09100
C764        C  0.87176307  0.13312592  0.37906131    -0.10700
C765        C  0.98764598  0.00514034  0.37764868    -0.09100
C766        C  0.01389483  0.49741687  0.37646596    -0.10700
C767        C  0.86920190  0.00389807  0.26590513    -0.09100
C768        C  0.86901464  0.49708054  0.24040597    -0.10700
C769        C  0.73874881  0.32154566  0.36858200    -0.09100
C770        C  0.76181947  0.30698593  0.36742482    -0.10700
C771        C  0.62485521  0.49394011  0.36476124    -0.09100
C772        C  0.63108322  0.46788842  0.36501536    -0.10700
C773        C  0.62561586  0.24316914  0.36777336    -0.09100
C774        C  0.63137425  0.21712237  0.37021464    -0.10700
C775        C  0.73751075  0.07006428  0.37787318    -0.09100
C776        C  0.76094980  0.05594636  0.37747462    -0.10700
C777        C  0.73748160  0.43220464  0.12255173    -0.09100
C778        C  0.76062279  0.44668431  0.12429080    -0.10700
C779        C  0.63068844  0.37003128  0.26015684    -0.09100
C780        C  0.63122149  0.37738520  0.23472627    -0.10700
C781        C  0.62683437  0.25857599  0.13078510    -0.09100
C782        C  0.63244007  0.28468936  0.12879749    -0.10700
C783        C  0.63443267  0.03430439  0.13502827    -0.09100
C784        C  0.62824750  0.00828124  0.13531965    -0.10700
C785        C  0.76222698  0.19562872  0.12990899    -0.09100
C786        C  0.73921816  0.18100206  0.13072320    -0.10700
C787        C  0.62978062  0.12512978  0.26544035    -0.09100
C788        C  0.62949916  0.13249477  0.23993956    -0.10700
C789        C  0.26292721  0.43393799  0.36938528    -0.09100
C790        C  0.24009469  0.44882654  0.36796105    -0.10700
C791        C  0.48655746  0.37894333  0.36907820    -0.09100
C792        C  0.51261876  0.37066786  0.36777541    -0.10700
C793        C  0.36748085  0.28498918  0.37239987    -0.09100
C794        C  0.37335338  0.25897568  0.36997644    -0.10700
C795        C  0.37167926  0.00855093  0.36623376    -0.09100
C796        C  0.36519803  0.03456484  0.36631645    -0.10700
C797        C  0.26026233  0.18285182  0.37260298    -0.09100
C798        C  0.23734579  0.19774155  0.37197945    -0.10700
C799        C  0.48571885  0.13101540  0.36857199    -0.09100
C800        C  0.51189353  0.12307145  0.36952629    -0.10700
C801        C  0.23736042  0.30733939  0.12922176    -0.09100
C802        C  0.26007521  0.32243641  0.13057142    -0.10700
C803        C  0.48584787  0.37326998  0.13621190    -0.09100
C804        C  0.51202765  0.38112001  0.13537026    -0.10700
C805        C  0.37009442  0.37796030  0.26614905    -0.09100
C806        C  0.36964424  0.37087223  0.24066854    -0.10700
C807        C  0.37152364  0.49573821  0.13506311    -0.09100
C808        C  0.36510363  0.46973791  0.13516072    -0.10700
C809        C  0.37280841  0.24499043  0.13143139    -0.09100
C810        C  0.36713137  0.21895153  0.12898617    -0.10700
C811        C  0.26223873  0.07057014  0.12934447    -0.09100
C812        C  0.23937812  0.05567327  0.13018384    -0.10700
C813        C  0.48694659  0.12350988  0.13060568    -0.09100
C814        C  0.51323480  0.13113454  0.13145044    -0.10700
C815        C  0.36901319  0.13266994  0.26118369    -0.09100
C816        C  0.36942327  0.12569001  0.23558977    -0.10700
C817        C  0.13289877  0.48961767  0.51198500    -0.09100
C818        C  0.13316764  0.48999674  0.48571920    -0.10700
C819        C  0.12860850  0.23157755  0.51059367    -0.09100
C820        C  0.12929682  0.23170132  0.48404083    -0.10700
C821        C  0.13063497  0.34357123  0.62165775    -0.09100
C822        C  0.12528605  0.36975595  0.62330456    -0.10700
C823        C  0.12968961  0.11965216  0.62830296    -0.09100
C824        C  0.13612810  0.09372744  0.62725560    -0.10700
C825        C  0.12500373  0.26755781  0.98309160    -0.09100
C826        C  0.12499101  0.26722920  0.00954321    -0.10700
C827        C  0.13462553  0.25572431  0.75986901    -0.09100
C828        C  0.13465631  0.24914656  0.73435550    -0.10700
C829        C  0.13273309  0.01566980  0.98539700    -0.09100
C830        C  0.13218550  0.01545563  0.01182444    -0.10700
C831        C  0.13360207  0.40814640  0.87783911    -0.09100
C832        C  0.12726834  0.38218338  0.87620336    -0.10700
C833        C  0.13047680  0.13227098  0.87754767    -0.09100
C834        C  0.13643390  0.15834929  0.87895454    -0.10700
C835        C  0.12671028  0.00410675  0.76077872    -0.09100
C836        C  0.12765316  0.49694848  0.73521401    -0.10700
C837        C  0.86872815  0.48166986  0.01587678    -0.09100
C838        C  0.86823692  0.48152108  0.98933812    -0.10700
C839        C  0.98692980  0.49631607  0.88437310    -0.09100
C840        C  0.01302138  0.00450956  0.88357645    -0.10700
C841        C  0.87337622  0.23771620  0.01132520    -0.09100
C842        C  0.87321526  0.23762007  0.98499482    -0.10700
C843        C  0.87184807  0.36883233  0.87276559    -0.09100
C844        C  0.86571252  0.34282717  0.87286429    -0.10700
C845        C  0.86946573  0.11875638  0.87466402    -0.09100
C846        C  0.86378693  0.09269197  0.87708670    -0.10700
C847        C  0.98639673  0.24400523  0.86692256    -0.09100
C848        C  0.01252855  0.25213584  0.86733780    -0.10700
C849        C  0.86493632  0.26513033  0.48297244    -0.09100
C850        C  0.86549096  0.26458296  0.50936700    -0.10700
C851        C  0.98542027  0.25175444  0.62194274    -0.09100
C852        C  0.01158874  0.24368814  0.62168968    -0.10700
C853        C  0.87313445  0.25341715  0.73474884    -0.09100
C854        C  0.87265453  0.24628956  0.76042505    -0.10700
C855        C  0.87094335  0.01891001  0.48949700    -0.09100
C856        C  0.87104908  0.01867125  0.51598662    -0.10700
C857        C  0.86745053  0.40766759  0.62443907    -0.09100
C858        C  0.87347245  0.38153046  0.62493075    -0.10700
C859        C  0.87020993  0.13186195  0.62873429    -0.09100
C860        C  0.86386090  0.15772338  0.62641310    -0.10700
C861        C  0.98807703  0.00668065  0.62559575    -0.09100
C862        C  0.01431602  0.49885694  0.62551100    -0.10700
C863        C  0.87079273  0.49781052  0.76532476    -0.09100
C864        C  0.87024520  0.00435377  0.73978683    -0.10700
C865        C  0.37296184  0.39552268  0.49058631    -0.09100
C866        C  0.37252500  0.39568879  0.51711804    -0.10700
C867        C  0.26301577  0.43165654  0.63066580    -0.09100
C868        C  0.23990624  0.44615250  0.62945174    -0.10700
C869        C  0.37200631  0.14069729  0.51185290    -0.09100
C870        C  0.37249956  0.14031076  0.48547707    -0.10700
C871        C  0.37154230  0.25914880  0.62050073    -0.09100
C872        C  0.36607618  0.28534516  0.62005189    -0.10700
C873        C  0.36381344  0.03457525  0.62221252    -0.09100
C874        C  0.37013700  0.00868387  0.62505226    -0.10700
C875        C  0.26121117  0.18337469  0.61536434    -0.09100
C876        C  0.23818674  0.19812453  0.61520264    -0.10700
C877        C  0.37556143  0.36391386  0.99106535    -0.09100
C878        C  0.37518970  0.36396118  0.01741513    -0.10700
C879        C  0.26043558  0.32199670  0.87721998    -0.09100
C880        C  0.23764961  0.30706120  0.87566890    -0.10700
C881        C  0.36930445  0.37192916  0.76771519    -0.09100
C882        C  0.37100888  0.37906209  0.74223385    -0.10700
C883        C  0.37265671  0.10833885  0.98388072    -0.09100
C884        C  0.37333126  0.10861908  0.01040023    -0.10700
C885        C  0.36574902  0.46892615  0.87414429    -0.09100
C886        C  0.37183446  0.49482698  0.87127551    -0.10700
C887        C  0.36320665  0.21855702  0.87751159    -0.09100
C888        C  0.36906893  0.24465842  0.87739276    -0.10700
C889        C  0.23816829  0.05563523  0.87519745    -0.09100
C890        C  0.26111625  0.07046137  0.87563034    -0.10700
C891        C  0.36553160  0.12511917  0.76000118    -0.09100
C892        C  0.36549341  0.13222190  0.73456566    -0.10700
C893        C  0.62838659  0.36181132  0.48371954    -0.09100
C894        C  0.62892894  0.36203740  0.51009302    -0.10700
C895        C  0.73869343  0.32094338  0.63007390    -0.09100
C896        C  0.76152802  0.30608239  0.63046890    -0.10700
C897        C  0.51474174  0.37352106  0.62723500    -0.09100
C898        C  0.48861717  0.38157693  0.62789778    -0.10700
C899        C  0.62565287  0.10799160  0.48984249    -0.09100
C900        C  0.62708485  0.10808060  0.51629794    -0.10700
C901        C  0.62924687  0.49466696  0.62992547    -0.09100
C902        C  0.63553599  0.46881447  0.62730320    -0.10700
C903        C  0.63429172  0.21855815  0.62494729    -0.09100
C904        C  0.62838811  0.24470091  0.62530439    -0.10700
C905        C  0.73813182  0.07023220  0.62353189    -0.09100
C906        C  0.76110673  0.05525313  0.62337930    -0.10700
C907        C  0.48636257  0.13073793  0.62028301    -0.09100
C908        C  0.51241015  0.12243733  0.62105059    -0.10700
C909        C  0.61840788  0.39445978  0.98532529    -0.09100
C910        C  0.61834963  0.39450663  0.01176062    -0.10700
C911        C  0.73710322  0.43188679  0.87664669    -0.09100
C912        C  0.76041678  0.44621714  0.87685066    -0.10700
C913        C  0.51144691  0.37944103  0.86556687    -0.09100
C914        C  0.48535111  0.37141067  0.86706168    -0.10700
C915        C  0.62953936  0.37155398  0.73512897    -0.09100
C916        C  0.62984754  0.37861182  0.76076174    -0.10700
C917        C  0.62820540  0.13944894  0.98886498    -0.09100
C918        C  0.62811234  0.13929024  0.01528545    -0.10700
C919        C  0.63383628  0.28451766  0.86970368    -0.09100
C920        C  0.62782172  0.25841544  0.86962393    -0.10700
C921        C  0.62454759  0.00862639  0.86385404    -0.09100
C922        C  0.63081523  0.03457311  0.86611173    -0.10700
C923        C  0.76000895  0.19791809  0.86845810    -0.09100
C924        C  0.73707703  0.18316991  0.86971235    -0.10700
C925        C  0.51256269  0.13167013  0.87361614    -0.09100
C926        C  0.48644583  0.12361456  0.87297035    -0.10700
C927        C  0.62783666  0.12359366  0.74030459    -0.09100
C928        C  0.62809236  0.13080208  0.76572519    -0.10700
Zn929      Zn  0.60082416  0.66776999  0.84925936     1.49700
Zn930      Zn  0.64691115  0.67410770  0.90276270     1.49400
Zn931      Zn  0.60452158  0.61883427  0.89953082     1.49100
Zn932      Zn  0.65942992  0.62510127  0.85424934     1.49500
O933        O  0.62775433  0.64639411  0.87606182    -1.80000
O934        O  0.61058041  0.71216723  0.85222880    -0.70600
O935        O  0.64212254  0.66264752  0.94521745    -0.70400
O936        O  0.56033742  0.62298074  0.89254763    -0.70000
O937        O  0.63243800  0.71515125  0.89623713    -0.70600
O938        O  0.55621812  0.65733529  0.85766151    -0.70200
O939        O  0.61267538  0.62265138  0.94286526    -0.70800
O940        O  0.65664553  0.58024316  0.86142679    -0.70200
O941        O  0.69045552  0.67955396  0.89269522    -0.71000
O942        O  0.61313677  0.57804867  0.88621861    -0.70400
O943        O  0.70086847  0.64600568  0.85835715    -0.70800
O944        O  0.65002601  0.62649016  0.81160623    -0.70700
O945        O  0.60852484  0.65425678  0.80747740    -0.70500
C946        C  0.62275620  0.72715314  0.87287831     0.81300
C947        C  0.62778704  0.64155505  0.95749911     0.81800
C948        C  0.54446145  0.63814668  0.87487717     0.80700
C949        C  0.63414403  0.56571317  0.87171539     0.81100
C950        C  0.70837169  0.66837958  0.87397451     0.82200
C951        C  0.62898775  0.63781876  0.79633188     0.81300
Zn952      Zn  0.65948505  0.87564657  0.85137634     1.49700
Zn953      Zn  0.64364395  0.92486239  0.89940253     1.49400
Zn954      Zn  0.59994336  0.91697733  0.84343210     1.49100
Zn955      Zn  0.60247869  0.86946550  0.89539735     1.49500
O956        O  0.62639650  0.89661274  0.87184257    -1.80000
O957        O  0.70078644  0.89688337  0.85929938    -0.70600
O958        O  0.63092369  0.96548705  0.88972523    -0.70400
O959        O  0.60938699  0.90250741  0.80205560    -0.70000
O960        O  0.68814316  0.92879381  0.89447695    -0.70600
O961        O  0.65156715  0.87591079  0.80752475    -0.70200
O962        O  0.60817472  0.96194400  0.84615634    -0.70800
O963        O  0.55890157  0.87152638  0.88532266    -0.70200
O964        O  0.63464097  0.91619872  0.94173372    -0.71000
O965        O  0.55512180  0.90578695  0.85035097    -0.70400
O966        O  0.60663730  0.87539959  0.93906599    -0.70800
O967        O  0.61379033  0.82854836  0.88568559    -0.70700
O968        O  0.65718506  0.83090741  0.86067343    -0.70500
C969        C  0.70752239  0.91796959  0.87700060     0.81300
C970        C  0.62038334  0.97721307  0.86663222     0.81800
C971        C  0.63042198  0.88629886  0.79151770     0.80700
C972        C  0.54326484  0.88625869  0.86713028     0.81100
C973        C  0.61988990  0.89539204  0.95391646     0.82200
C974        C  0.63552234  0.81616063  0.87232330     0.81300
Zn975      Zn  0.64832998  0.58130846  0.65749893     1.49700
Zn976      Zn  0.65872285  0.62676342  0.60455595     1.49400
Zn977      Zn  0.60084341  0.58271497  0.60391049     1.49100
Zn978      Zn  0.60329713  0.63403478  0.65041774     1.49500
O979        O  0.62794804  0.60628597  0.62854418    -1.80000
O980        O  0.69196622  0.57575891  0.64727897    -0.70600
O981        O  0.64803534  0.62229138  0.56139943    -0.70400
O982        O  0.61025950  0.53927269  0.61125716    -0.70000
O983        O  0.70064246  0.60569572  0.60940573    -0.70600
O984        O  0.63475281  0.53941489  0.65411895    -0.70200
O985        O  0.60937811  0.59058045  0.56123720    -0.70800
O986        O  0.55958672  0.63171439  0.64097154    -0.70200
O987        O  0.65658502  0.67205468  0.61303005    -0.71000
O988        O  0.55603577  0.59427531  0.60947020    -0.70400
O989        O  0.61437391  0.67439055  0.63986810    -0.70800
O990        O  0.60917602  0.63174760  0.69359082    -0.70700
O991        O  0.64408412  0.59660854  0.69921867    -0.70500
C992        C  0.70914338  0.58513708  0.62700347     0.81300
C993        C  0.62825965  0.60698108  0.54781145     0.81800
C994        C  0.62375729  0.52586248  0.63215852     0.80700
C995        C  0.54407477  0.61541636  0.62408920     0.81100
C996        C  0.63565921  0.68681154  0.62602522     0.82200
C997        C  0.62692910  0.61674941  0.70965660     0.81300
Zn998      Zn  0.60271214  0.83515319  0.65018448     1.49700
Zn999      Zn  0.60621696  0.88402441  0.59915827     1.49400
Zn1000     Zn  0.66063507  0.87837371  0.64575375     1.49100
Zn1001     Zn  0.64926493  0.82997098  0.59637881     1.49500
O1002       O  0.62944028  0.85699065  0.62341557    -1.80000
O1003       O  0.55819375  0.84687734  0.64233547    -0.70600
O1004       O  0.61672905  0.92499904  0.60951674    -0.70400
O1005       O  0.65050226  0.87777175  0.68868683    -0.70000
O1006       O  0.56231738  0.88151253  0.60769642    -0.70600
O1007       O  0.61096077  0.84748464  0.69281706    -0.70200
O1008       O  0.65900559  0.92273534  0.63629302    -0.70800
O1009       O  0.69243765  0.82459508  0.60683360    -0.70200
O1010       O  0.61258273  0.87856406  0.55583240    -0.71000
O1011       O  0.70199008  0.85734869  0.64212395    -0.70400
O1012       O  0.64517043  0.84103064  0.55397597    -0.70800
O1013       O  0.63478740  0.78910772  0.60145128    -0.70700
O1014       O  0.61152828  0.79041516  0.64488454    -0.70500
C1015       C  0.54650915  0.86653250  0.62553723     0.81300
C1016       C  0.63778123  0.93738422  0.62384075     0.81800
C1017       C  0.63039851  0.86504305  0.70412634     0.80700
C1018       C  0.70992306  0.83547566  0.62603487     0.81100
C1019       C  0.62903311  0.86061338  0.54142919     0.82200
C1020       C  0.62398817  0.77619698  0.62377164     0.81300
Zn1021     Zn  0.35105890  0.58089615  0.84281423     1.49700
Zn1022     Zn  0.34004538  0.62639574  0.89580832     1.49400
Zn1023     Zn  0.39919512  0.58389080  0.89563912     1.49100
Zn1024     Zn  0.39392796  0.63511884  0.84887111     1.49500
O1025       O  0.37093899  0.60660576  0.87138007    -1.80000
O1026       O  0.30779957  0.57521090  0.85319196    -0.70600
O1027       O  0.35083929  0.62136338  0.93883704    -0.70400
O1028       O  0.39035811  0.54007182  0.88901976    -0.70000
O1029       O  0.29828254  0.60567828  0.89044540    -0.70600
O1030       O  0.36533836  0.53918441  0.84646092    -0.70200
O1031       O  0.39152548  0.59209825  0.93868821    -0.70800
O1032       O  0.43822263  0.63247672  0.85522091    -0.70200
O1033       O  0.34145767  0.67169227  0.88829155    -0.71000
O1034       O  0.44351526  0.59608606  0.88778025    -0.70400
O1035       O  0.38344440  0.67504804  0.86126470    -0.70800
O1036       O  0.38500207  0.63417482  0.80618940    -0.70700
O1037       O  0.35345253  0.59615487  0.80105694    -0.70500
C1038       C  0.29019904  0.58498397  0.87289097     0.81300
C1039       C  0.37165101  0.60726536  0.95229823     0.81800
C1040       C  0.37682377  0.52611018  0.86850060     0.80700
C1041       C  0.45465376  0.61662806  0.87175380     0.81100
C1042       C  0.36217693  0.68691163  0.87561643     0.82200
C1043       C  0.36807513  0.61799535  0.79047133     0.81300
Zn1044     Zn  0.35144195  0.83061209  0.90655940     1.49700
Zn1045     Zn  0.39590595  0.88372290  0.90086578     1.49400
Zn1046     Zn  0.39577148  0.83398822  0.85120507     1.49100
Zn1047     Zn  0.33876146  0.87849496  0.85726452     1.49500
O1048       O  0.37064879  0.85688303  0.87846681    -1.80000
O1049       O  0.35783394  0.84240610  0.94822740    -0.70600
O1050       O  0.43926086  0.88056065  0.88947606    -0.70400
O1051       O  0.38600765  0.78975349  0.85695047    -0.70000
O1052       O  0.39150339  0.87888431  0.94459341    -0.70600
O1053       O  0.36463603  0.78929767  0.90129545    -0.70200
O1054       O  0.44084987  0.84445721  0.85620782    -0.70800
O1055       O  0.34809729  0.87798769  0.81409565    -0.70200
O1056       O  0.38529238  0.92480665  0.89068119    -0.71000
O1057       O  0.38664356  0.84647360  0.80930427    -0.70400
O1058       O  0.34128058  0.92299191  0.86662712    -0.70800
O1059       O  0.29719008  0.85760971  0.86267036    -0.70700
O1060       O  0.30758796  0.82600450  0.89876427    -0.70500
C1061       C  0.37494768  0.86172526  0.95982834     0.81300
C1062       C  0.45375028  0.86473676  0.87125681     0.81800
C1063       C  0.37412432  0.77600561  0.87863000     0.80700
C1064       C  0.36774871  0.86481417  0.79842961     0.81100
C1065       C  0.36346265  0.93744268  0.87766689     0.82200
C1066       C  0.28948209  0.83648570  0.87988705     0.81300
Zn1067     Zn  0.39851654  0.66942836  0.59806366     1.49700
Zn1068     Zn  0.39434159  0.61971796  0.64621167     1.49400
Zn1069     Zn  0.35044594  0.67367514  0.65042405     1.49100
Zn1070     Zn  0.33997158  0.62576193  0.59993551     1.49500
O1071       O  0.37074431  0.64710179  0.62308828    -1.80000
O1072       O  0.44308933  0.65782013  0.60534523    -0.70600
O1073       O  0.38579755  0.62258938  0.68887057    -0.70400
O1074       O  0.36498655  0.71517323  0.64585508    -0.70000
O1075       O  0.43847838  0.62234557  0.63893665    -0.70600
O1076       O  0.38948259  0.71343893  0.60306478    -0.70200
O1077       O  0.35247694  0.65944014  0.69257173    -0.70800
O1078       O  0.29823791  0.64689067  0.60338289    -0.70200
O1079       O  0.38405519  0.57908493  0.63566950    -0.71000
O1080       O  0.30742776  0.67942851  0.63892877    -0.70400
O1081       O  0.34144484  0.58080827  0.60946277    -0.70800
O1082       O  0.35097819  0.62864810  0.55716597    -0.70700
O1083       O  0.39040726  0.65948646  0.55586391    -0.70500
C1084       C  0.45456606  0.63771078  0.62168448     0.81300
C1085       C  0.36803164  0.63859346  0.70394051     0.81800
C1086       C  0.37616848  0.72781730  0.62343159     0.80700
C1087       C  0.29009459  0.66873972  0.61947921     0.81100
C1088       C  0.36261246  0.56633810  0.62234150     0.82200
C1089       C  0.37115213  0.64293898  0.54313849     0.81300
Zn1090     Zn  0.34175982  0.87783999  0.60588109     1.49700
Zn1091     Zn  0.40075898  0.91961071  0.60487717     1.49400
Zn1092     Zn  0.35451893  0.92317473  0.65923763     1.49100
Zn1093     Zn  0.39627920  0.86812876  0.65191723     1.49500
O1094       O  0.37315720  0.89711396  0.63003297    -1.80000
O1095       O  0.35075887  0.88387714  0.56254842    -0.70600
O1096       O  0.39041022  0.96328139  0.60957463    -0.70400
O1097       O  0.31040512  0.92705598  0.65173343    -0.70000
O1098       O  0.39320686  0.91045383  0.56204315    -0.70600
O1099       O  0.30024115  0.89781918  0.61363271    -0.70200
O1100       O  0.36631932  0.96547434  0.65256524    -0.70800
O1101       O  0.38790615  0.86850996  0.69508634    -0.70200
O1102       O  0.44531446  0.90862493  0.61310168    -0.71000
O1103       O  0.35995214  0.90903013  0.70139903    -0.70400
O1104       O  0.44048553  0.87169414  0.64519643    -0.70800
O1105       O  0.38613217  0.82833069  0.63812809    -0.70700
O1106       O  0.34386091  0.83244775  0.61159571    -0.70500
C1107       C  0.37215597  0.89666523  0.54873173     0.81300
C1108       C  0.37655594  0.97777647  0.62950316     0.81800
C1109       C  0.29233296  0.91753383  0.63232365     0.80700
C1110       C  0.37318970  0.88607013  0.71152939     0.81100
C1111       C  0.45671378  0.88806485  0.62897902     0.82200
C1112       C  0.36490614  0.81689544  0.62333495     0.81300
Zn1113     Zn  0.85124820  0.54558420  0.65658492     1.49700
Zn1114     Zn  0.84104604  0.49929199  0.60450988     1.49400
Zn1115     Zn  0.89909644  0.54361627  0.60347001     1.49100
Zn1116     Zn  0.89620580  0.99274317  0.65055281     1.49500
O1117       O  0.87178629  0.52023361  0.62812760    -1.80000
O1118       O  0.80776709  0.55092088  0.64627293    -0.70600
O1119       O  0.85114587  0.50438642  0.56139267    -0.70400
O1120       O  0.88921175  0.58714958  0.61021677    -0.70000
O1121       O  0.79869875  0.51966589  0.60960040    -0.70600
O1122       O  0.86486108  0.58729029  0.65312088    -0.70200
O1123       O  0.89057347  0.53524267  0.56069293    -0.70800
O1124       O  0.94020965  0.99645761  0.64333682    -0.70200
O1125       O  0.84422982  0.95388370  0.61274063    -0.71000
O1126       O  0.94409272  0.53286071  0.61067573    -0.70400
O1127       O  0.88660278  0.95217519  0.63939585    -0.70800
O1128       O  0.88875162  0.99482223  0.69338496    -0.70700
O1129       O  0.85494266  0.53104050  0.69834881    -0.70500
C1130       C  0.79031196  0.54072548  0.62665737     0.81300
C1131       C  0.87098416  0.51936562  0.54753508     0.81800
C1132       C  0.87574147  0.60069434  0.63104391     0.80700
C1133       C  0.95603146  0.51272020  0.62670285     0.81100
C1134       C  0.86553366  0.93942386  0.62553925     0.82200
C1135       C  0.87133399  0.51051616  0.70910159     0.81300
Zn1136     Zn  0.85072342  0.79689728  0.59652318     1.49700
Zn1137     Zn  0.89852420  0.79041011  0.64915648     1.49400
Zn1138     Zn  0.83960750  0.74821226  0.64583115     1.49100
Zn1139     Zn  0.89262624  0.74232276  0.59744697     1.49500
O1140       O  0.87065543  0.76929260  0.62287972    -1.80000
O1141       O  0.86641671  0.83731271  0.60103022    -0.70600
O1142       O  0.89134755  0.77743832  0.69204702    -0.70400
O1143       O  0.79810962  0.76938222  0.64249703    -0.70000
O1144       O  0.88997945  0.83545591  0.64430617    -0.70600
O1145       O  0.80811002  0.80291537  0.60804030    -0.70200
O1146       O  0.85066902  0.74850419  0.68870650    -0.70800
O1147       O  0.88236636  0.70147874  0.60829978    -0.70200
O1148       O  0.94269986  0.77818844  0.63947451    -0.71000
O1149       O  0.84086055  0.70386237  0.63618506    -0.70400
O1150       O  0.93695558  0.74460251  0.60405681    -0.70800
O1151       O  0.88402866  0.74761565  0.55431077    -0.70700
O1152       O  0.85242120  0.78592594  0.55403233    -0.86500
C1153       C  0.87755297  0.84996998  0.62332078     0.81300
C1154       C  0.87166327  0.76035353  0.70374964     0.81800
C1155       C  0.79040766  0.79167376  0.62681398     0.80700
C1156       C  0.86166763  0.68916310  0.62314950     0.81100
C1157       C  0.95359388  0.75897189  0.62168481     0.82200
C1158       C  0.86724682  0.76593514  0.54070113     0.81300
Zn1159     Zn  0.85023181  0.70556043  0.89983041     1.49700
Zn1160     Zn  0.89565671  0.75700206  0.89560814     1.49400
Zn1161     Zn  0.89677915  0.70766771  0.84547084     1.49100
Zn1162     Zn  0.83997901  0.75308870  0.84980853     1.49500
O1163       O  0.87087984  0.73092574  0.87192437    -1.80000
O1164       O  0.85482368  0.71742490  0.94172995    -0.70600
O1165       O  0.93908383  0.75384690  0.88597209    -0.70400
O1166       O  0.88660050  0.66322616  0.85240383    -0.70000
O1167       O  0.89072551  0.75173005  0.93895998    -0.70600
O1168       O  0.86354698  0.66436833  0.89598796    -0.70200
O1169       O  0.94206773  0.71790082  0.85266007    -0.70800
O1170       O  0.85101698  0.75293189  0.80674327    -0.70200
O1171       O  0.88526467  0.79808672  0.88680447    -0.71000
O1172       O  0.88876489  0.72032287  0.80271556    -0.70400
O1173       O  0.84233012  0.79727920  0.86091496    -0.70800
O1174       O  0.79781758  0.73266835  0.85387109    -0.70700
O1175       O  0.80686865  0.70120508  0.89039559    -0.70500
C1176       C  0.87283521  0.73561544  0.95377798     0.81300
C1177       C  0.95440717  0.73786733  0.86863450     0.81800
C1178       C  0.87404339  0.65024639  0.87427965     0.80700
C1179       C  0.87064548  0.73926457  0.79137959     0.81100
C1180       C  0.86381922  0.81122054  0.87376325     0.82200
C1181       C  0.78938178  0.71177375  0.87105034     0.81300
Zn1182     Zn  0.85169855  0.95560664  0.84763082     1.49700
Zn1183     Zn  0.89613931  0.50796541  0.85499034     1.49400
Zn1184     Zn  0.83974873  0.50113839  0.89991475     1.49100
Zn1185     Zn  0.89799583  0.95686554  0.90212796     1.49500
O1186       O  0.87128137  0.98049445  0.87695503    -1.80000
O1187       O  0.85545463  0.97088970  0.80639713    -0.70600
O1188       O  0.88483860  0.54831350  0.86477233    -0.70400
O1189       O  0.79769804  0.98089250  0.89299360    -0.70000
O1190       O  0.89038714  0.50587185  0.81174104    -0.70600
O1191       O  0.80815233  0.94999852  0.85637490    -0.70200
O1192       O  0.84210891  0.54638731  0.89084505    -0.70800
O1193       O  0.88781250  0.96445059  0.94478462    -0.70200
O1194       O  0.93972158  0.50551589  0.86460261    -0.71000
O1195       O  0.84897781  0.99610700  0.94352432    -0.70400
O1196       O  0.94300066  0.96891041  0.89713638    -0.70800
O1197       O  0.88939866  0.91316400  0.89369796    -0.70700
O1198       O  0.86582540  0.91419594  0.85036849    -0.70500
C1199       C  0.87237680  0.99101629  0.79586291     0.81300
C1200       C  0.86309919  0.56093392  0.87773567     0.81800
C1201       C  0.78990993  0.96021370  0.87525056     0.80700
C1202       C  0.86830276  0.98067395  0.95770314     0.81100
C1203       C  0.95512355  0.98957919  0.88194064     0.82200
C1204       C  0.87666221  0.90017528  0.87207376     0.81300
Zn1205     Zn  0.16000113  0.49935759  0.89576164     1.49700
Zn1206     Zn  0.10321094  0.99289084  0.85160999     1.49400
Zn1207     Zn  0.10218565  0.54302883  0.89987966     1.49100
Zn1208     Zn  0.14707333  0.54650982  0.84437541     1.49500
O1209       O  0.12825871  0.52038921  0.87332465    -1.80000
O1210       O  0.15732030  0.95429087  0.88778115    -0.70600
O1211       O  0.05953733  0.99594388  0.86175850    -0.70400
O1212       O  0.11222788  0.53352740  0.94181912    -0.70000
O1213       O  0.11380035  0.95245599  0.86296165    -0.70600
O1214       O  0.15190947  0.50317016  0.93923839    -0.70200
O1215       O  0.05720966  0.53173869  0.89525728    -0.70800
O1216       O  0.13430681  0.58864164  0.85075690    -0.70200
O1217       O  0.10919933  0.99477376  0.80802958    -0.71000
O1218       O  0.11180392  0.58677468  0.89458491    -0.70400
O1219       O  0.14146760  0.53214408  0.80204209    -0.70800
O1220       O  0.19111576  0.55122058  0.85307589    -0.70700
O1221       O  0.20148782  0.51990516  0.88948519    -0.70500
C1222       C  0.13542839  0.93981006  0.87617949     0.81300
C1223       C  0.04465580  0.51147130  0.87991727     0.81800
C1224       C  0.13229602  0.51747858  0.95399097     0.80700
C1225       C  0.12464249  0.60115748  0.87395317     0.81100
C1226       C  0.12561169  0.51092726  0.79166710     0.82200
C1227       C  0.20915366  0.54100186  0.87224589     0.81300
Zn1228     Zn  0.09838934  0.79205190  0.89516393     1.49700
Zn1229     Zn  0.10645762  0.74153499  0.84811972     1.49400
Zn1230     Zn  0.14757115  0.79747199  0.84368328     1.49100
Zn1231     Zn  0.15897270  0.75102413  0.89572263     1.49500
O1232       O  0.12795085  0.77051730  0.87126337    -1.80000
O1233       O  0.05441308  0.77974035  0.88495405    -0.70600
O1234       O  0.11691304  0.74338491  0.80587515    -0.70400
O1235       O  0.13409261  0.83901688  0.84973253    -0.70000
O1236       O  0.06184902  0.74381108  0.85231268    -0.70600
O1237       O  0.10736615  0.83628787  0.89117986    -0.70200
O1238       O  0.14446210  0.78440857  0.80148446    -0.70800
O1239       O  0.20061671  0.77175625  0.89025814    -0.70200
O1240       O  0.11670036  0.70161234  0.86122708    -0.71000
O1241       O  0.19104108  0.80243083  0.85316723    -0.70400
O1242       O  0.15781162  0.70553300  0.88934881    -0.70800
O1243       O  0.14797381  0.75647124  0.93836039    -0.70700
O1244       O  0.10497341  0.78244863  0.93799461    -0.70500
C1245       C  0.04434186  0.75934877  0.86806195     0.81300
C1246       C  0.13193745  0.76158135  0.79049145     0.81800
C1247       C  0.12197598  0.85109889  0.87197213     0.80700
C1248       C  0.20869018  0.79246207  0.87270840     0.81100
C1249       C  0.13746621  0.69001734  0.87649689     0.82200
C1250       C  0.12594515  0.76879513  0.95163698     0.81300
Zn1251     Zn  0.15736029  0.75290760  0.59907310     1.49700
Zn1252     Zn  0.10079358  0.70696502  0.59890941     1.49400
Zn1253     Zn  0.14956563  0.70674723  0.65130988     1.49100
Zn1254     Zn  0.10326329  0.75777166  0.64650388     1.49500
O1255       O  0.12769821  0.73116516  0.62314794    -1.80000
O1256       O  0.14696156  0.74764561  0.55604712    -0.70600
O1257       O  0.11074505  0.66356421  0.60766377    -0.70400
O1258       O  0.19207187  0.70106051  0.63884286    -0.70000
O1259       O  0.10972411  0.71427947  0.55561571    -0.70600
O1260       O  0.20013503  0.73368131  0.60313099    -0.70200
O1261       O  0.13539175  0.66525675  0.65041449    -0.70800
O1262       O  0.11220574  0.75615452  0.68913080    -0.70200
O1263       O  0.05573948  0.71816158  0.60598739    -0.71000
O1264       O  0.14896519  0.72266973  0.69255804    -0.70400
O1265       O  0.05928656  0.75331328  0.64003466    -0.70800
O1266       O  0.11184015  0.79860583  0.63561684    -0.70700
O1267       O  0.15364957  0.79793810  0.60809728    -0.70500
C1268       C  0.12831957  0.73120409  0.54226316     0.81300
C1269       C  0.12426668  0.65091459  0.62906722     0.81800
C1270       C  0.20898003  0.71210854  0.61928146     0.80700
C1271       C  0.13188095  0.74221565  0.70395698     0.81100
C1272       C  0.04363475  0.73761934  0.62273419     0.82200
C1273       C  0.13252023  0.81185551  0.62166761     0.81300
Zn1274     Zn  0.10199051  0.96026751  0.65019754     1.49700
Zn1275     Zn  0.10663691  0.50912421  0.60009994     1.49400
Zn1276     Zn  0.16110486  0.50309517  0.64657112     1.49100
Zn1277     Zn  0.14978523  0.95507004  0.59741148     1.49500
O1278       O  0.12968516  0.98193540  0.62426924    -1.80000
O1279       O  0.05755884  0.97245555  0.64184644    -0.70600
O1280       O  0.11687931  0.54976878  0.61081983    -0.70400
O1281       O  0.15019906  0.00231225  0.68937356    -0.70000
O1282       O  0.06243500  0.50674901  0.60707152    -0.70600
O1283       O  0.10996562  0.97264979  0.69279170    -0.70200
O1284       O  0.15949948  0.54761990  0.63705286    -0.70800
O1285       O  0.19286694  0.94915832  0.60760688    -0.70200
O1286       O  0.11456359  0.00476163  0.55722929    -0.71000
O1287       O  0.20288493  0.98219503  0.64244188    -0.70400
O1288       O  0.14698559  0.96708559  0.55553587    -0.70800
O1289       O  0.13437477  0.91459185  0.60144245    -0.70700
O1290       O  0.10973533  0.91536624  0.64419497    -0.70500
C1291       C  0.04619442  0.99194037  0.62465673     0.81300
C1292       C  0.13814135  0.56221747  0.62471378     0.81800
C1293       C  0.12944386  0.99000234  0.70438336     0.80700
C1294       C  0.21075102  0.96032123  0.62624715     0.81100
C1295       C  0.13154492  0.98717085  0.54304872     0.82200
C1296       C  0.12229681  0.90140112  0.62295443     0.81300
Zn1297     Zn  0.39823344  0.58707131  0.15284897     1.49700
Zn1298     Zn  0.39561174  0.63362026  0.09981194     1.49400
Zn1299     Zn  0.35307212  0.57867129  0.09821485     1.49100
Zn1300     Zn  0.33978756  0.62889185  0.14561923     1.49500
O1301       O  0.37185666  0.60726201  0.12447106    -1.80000
O1302       O  0.44288888  0.59790170  0.14550765    -0.70600
O1303       O  0.38890261  0.62723016  0.05605955    -0.70400
O1304       O  0.36693385  0.53798346  0.10707336    -0.70000
O1305       O  0.43980958  0.63080146  0.10914680    -0.70600
O1306       O  0.38893927  0.54250778  0.15092339    -0.70200
O1307       O  0.35871743  0.58777678  0.05515976    -0.70800
O1308       O  0.29843207  0.60766186  0.14121358    -0.70200
O1309       O  0.38546049  0.67494624  0.11053579    -0.71000
O1310       O  0.30928064  0.57386150  0.10724724    -0.70400
O1311       O  0.34238311  0.67321486  0.13620545    -0.70800
O1312       O  0.34841846  0.62929729  0.18887349    -0.70700
O1313       O  0.38962334  0.60147110  0.19435980    -0.70500
C1314       C  0.45512317  0.61665298  0.12814375     0.81300
C1315       C  0.37366824  0.60789878  0.04201084     0.81800
C1316       C  0.37669814  0.52683665  0.13080451     0.80700
C1317       C  0.29108207  0.58524423  0.12556940     0.81100
C1318       C  0.36435070  0.68758306  0.12469355     0.82200
C1319       C  0.36909974  0.61826316  0.20487253     0.81300
Zn1320     Zn  0.39471994  0.88495655  0.10727379     1.49700
Zn1321     Zn  0.39727488  0.83521730  0.15671151     1.49400
Zn1322     Zn  0.33853104  0.87863237  0.15167689     1.49100
Zn1323     Zn  0.35156299  0.83077853  0.10235496     1.49500
O1324       O  0.37060241  0.85747133  0.13007554    -1.80000
O1325       O  0.43843354  0.88220937  0.11668980    -0.70600
O1326       O  0.38833914  0.84727584  0.19866876    -0.70400
O1327       O  0.34104456  0.92355776  0.14354476    -0.70000
O1328       O  0.44203786  0.84659922  0.15029185    -0.70600
O1329       O  0.38418125  0.92573697  0.11814797    -0.70200
O1330       O  0.34804277  0.87683816  0.19462322    -0.70800
O1331       O  0.30769161  0.82628916  0.11010671    -0.70200
O1332       O  0.38915135  0.79058347  0.15146597    -0.71000
O1333       O  0.29676500  0.85793598  0.14598748    -0.70400
O1334       O  0.36494080  0.78965410  0.10853881    -0.70800
O1335       O  0.35819224  0.84191279  0.06039209    -0.70700
O1336       O  0.38954860  0.88031608  0.06378970    -0.70500
C1337       C  0.45400230  0.86669325  0.13428621     0.81300
C1338       C  0.36848182  0.86436115  0.20990728     0.81800
C1339       C  0.36284363  0.93819335  0.13201280     0.80700
C1340       C  0.28929726  0.83678096  0.12871259     0.81100
C1341       C  0.37642032  0.77655316  0.13045258     0.82200
C1342       C  0.37420162  0.86207383  0.04866334     0.81300
Zn1343     Zn  0.35204074  0.67399179  0.39998682     1.49700
Zn1344     Zn  0.39399564  0.61910826  0.39576624     1.49400
Zn1345     Zn  0.33813475  0.62585593  0.35073560     1.49100
Zn1346     Zn  0.39726010  0.66826120  0.34543269     1.49500
O1347       O  0.37042294  0.64665308  0.37237394    -1.80000
O1348       O  0.35779137  0.66295291  0.44203450    -0.70600
O1349       O  0.38398533  0.57841627  0.38400372    -0.70400
O1350       O  0.29651304  0.64679790  0.35739360    -0.70000
O1351       O  0.38749652  0.62324889  0.43935129    -0.70600
O1352       O  0.30828731  0.67928020  0.39229513    -0.70200
O1353       O  0.34086903  0.58081028  0.35854189    -0.70800
O1354       O  0.38854132  0.65560846  0.30336822    -0.70200
O1355       O  0.43798073  0.62232099  0.38749811    -0.71000
O1356       O  0.34709461  0.62772943  0.30741865    -0.70400
O1357       O  0.44194542  0.65693298  0.35288398    -0.70800
O1358       O  0.38900824  0.71302334  0.35007991    -0.70700
O1359       O  0.36639589  0.71471751  0.39379530    -0.70500
C1360       C  0.37255352  0.64212983  0.45415670     0.81300
C1361       C  0.36275858  0.56608239  0.36988426     0.81800
C1362       C  0.28946996  0.66840260  0.37434437     0.80700
C1363       C  0.36804552  0.63929774  0.29206902     0.81100
C1364       C  0.45377116  0.63745716  0.36976532     0.82200
C1365       C  0.37707949  0.72743104  0.37130782     0.81300
Zn1366     Zn  0.35292612  0.92543808  0.40260667     1.49700
Zn1367     Zn  0.34018122  0.87489045  0.35559846     1.49400
Zn1368     Zn  0.39832226  0.91713297  0.34836501     1.49100
Zn1369     Zn  0.39572496  0.87046515  0.40129230     1.49500
O1370       O  0.37201332  0.89680987  0.37664008    -1.80000
O1371       O  0.30934580  0.93048215  0.39267021    -0.70600
O1372       O  0.34928743  0.87403680  0.31270577    -0.70400
O1373       O  0.38919409  0.96177096  0.35029807    -0.70000
O1374       O  0.29898939  0.89636945  0.35887961    -0.70600
O1375       O  0.36696113  0.96616407  0.39403886    -0.70200
O1376       O  0.38964935  0.90291286  0.30702905    -0.70800
O1377       O  0.43979167  0.87276141  0.39149106    -0.70200
O1378       O  0.34245731  0.83064288  0.36523124    -0.71000
O1379       O  0.44285715  0.90567842  0.35514040    -0.70400
O1380       O  0.38557127  0.82908338  0.39080354    -0.70800
O1381       O  0.38905417  0.87717534  0.44499607    -0.70700
O1382       O  0.35806821  0.91612473  0.44573815    -0.70500
C1383       C  0.29150439  0.91905960  0.37405599     0.81300
C1384       C  0.36962055  0.88552900  0.29669204     0.81800
C1385       C  0.37684476  0.97740199  0.37040072     0.80700
C1386       C  0.45500908  0.88661285  0.37223732     0.81100
C1387       C  0.36450652  0.81634867  0.37671230     0.82200
C1388       C  0.37336137  0.89625102  0.45896394     0.81300
Zn1389     Zn  0.60173101  0.66805083  0.15519554     1.49700
Zn1390     Zn  0.66055517  0.62528477  0.15078161     1.49400
Zn1391     Zn  0.60535563  0.61868087  0.10501182     1.49100
Zn1392     Zn  0.64807208  0.67312587  0.10109490     1.49500
O1393       O  0.62875781  0.64621249  0.12855341    -1.80000
O1394       O  0.61004014  0.65562473  0.19761201    -0.70600
O1395       O  0.65827515  0.58051985  0.14291126    -0.70400
O1396       O  0.56117434  0.62203488  0.11291432    -0.70000
O1397       O  0.65106737  0.62710512  0.19375896    -0.70600
O1398       O  0.55703983  0.65687832  0.14727824    -0.70200
O1399       O  0.61543760  0.57799224  0.11702109    -0.70800
O1400       O  0.64278408  0.66192632  0.05885531    -0.70200
O1401       O  0.70226080  0.64567608  0.14539387    -0.71000
O1402       O  0.61243744  0.62271587  0.06142377    -0.70400
O1403       O  0.69178030  0.67774818  0.10972908    -0.70800
O1404       O  0.63429588  0.71418631  0.10717567    -0.70700
O1405       O  0.61032779  0.71273816  0.15024858    -0.70500
C1406       C  0.63030620  0.63904063  0.20902613     0.81300
C1407       C  0.63661232  0.56575702  0.13136144     0.81800
C1408       C  0.54526773  0.63736675  0.13042432     0.80700
C1409       C  0.62785212  0.64126740  0.04665722     0.81100
C1410       C  0.70994147  0.66696633  0.12840733     0.82200
C1411       C  0.62302493  0.72702280  0.12934912     0.81300
Zn1412     Zn  0.65990196  0.87520795  0.14449227     1.49700
Zn1413     Zn  0.60152014  0.91732190  0.15353497     1.49400
Zn1414     Zn  0.64450590  0.92507318  0.09743719     1.49100
Zn1415     Zn  0.60189252  0.86994734  0.10189551     1.49500
O1416       O  0.62691426  0.89672942  0.12468413    -1.80000
O1417       O  0.65240220  0.87484935  0.18801222    -0.70600
O1418       O  0.61115970  0.96166087  0.15170588    -0.70400
O1419       O  0.68914536  0.92899197  0.10287509    -0.70000
O1420       O  0.61100812  0.90234798  0.19427049    -0.70600
O1421       O  0.70114020  0.89638709  0.13764652    -0.70200
O1422       O  0.63212772  0.96598028  0.10737847    -0.70800
O1423       O  0.60586027  0.87606460  0.05813108    -0.70200
O1424       O  0.55647609  0.90735141  0.14793049    -0.71000
O1425       O  0.63530170  0.91599774  0.05518782    -0.70400
O1426       O  0.55841970  0.87270667  0.11322106    -0.70800
O1427       O  0.61268868  0.82873436  0.11199496    -0.70700
O1428       O  0.65713765  0.83069629  0.13527676    -0.70500
C1429       C  0.63171816  0.88551106  0.20428630     0.81300
C1430       C  0.62300565  0.97720927  0.13129742     0.81800
C1431       C  0.70814744  0.91793152  0.12064204     0.80700
C1432       C  0.61981360  0.89557477  0.04316779     0.81100
C1433       C  0.54372194  0.88777896  0.13190352     0.82200
C1434       C  0.63468150  0.81617438  0.12486928     0.81300
Zn1435     Zn  0.60309680  0.63225070  0.40047267     1.49700
Zn1436     Zn  0.64431425  0.57633195  0.40259089     1.49400
Zn1437     Zn  0.60025888  0.58598720  0.34751073     1.49100
Zn1438     Zn  0.65956966  0.62669823  0.35559750     1.49500
O1439       O  0.62676843  0.60549742  0.37614822    -1.80000
O1440       O  0.61033956  0.62667809  0.44416476    -0.70600
O1441       O  0.63034529  0.53590957  0.39287834    -0.70400
O1442       O  0.55577698  0.59726893  0.35460850    -0.70000
O1443       O  0.63803101  0.58547171  0.44538596    -0.70600
O1444       O  0.55886578  0.62953902  0.39146870    -0.70200
O1445       O  0.60865365  0.54120905  0.34895340    -0.70800
O1446       O  0.65187599  0.62667037  0.31193959    -0.70200
O1447       O  0.68849867  0.57177849  0.39573407    -0.71000
O1448       O  0.60916697  0.60110302  0.30645414    -0.70400
O1449       O  0.70115704  0.60605925  0.36283269    -0.70800
O1450       O  0.65641730  0.67126599  0.36407776    -0.70700
O1451       O  0.61298335  0.67336368  0.38908697    -0.70500
C1452       C  0.62454327  0.60667406  0.45833255     0.81300
C1453       C  0.62041419  0.52513411  0.36906059     0.81800
C1454       C  0.54358530  0.61583542  0.37217093     0.80700
C1455       C  0.63042054  0.61698838  0.29599464     0.81100
C1456       C  0.70787603  0.58378192  0.37904226     0.82200
C1457       C  0.63421404  0.68580206  0.37498525     0.81300
Zn1458     Zn  0.65984535  0.87741255  0.34962499     1.49700
Zn1459     Zn  0.60432295  0.88260923  0.39461736     1.49400
Zn1460     Zn  0.60127504  0.83404340  0.34380945     1.49100
Zn1461     Zn  0.64734155  0.82822699  0.39780480     1.49500
O1462       O  0.62804458  0.85560703  0.37085906    -1.80000
O1463       O  0.65629597  0.92220455  0.35744185    -0.70600
O1464       O  0.56029202  0.87868864  0.38706296    -0.70400
O1465       O  0.61045662  0.84674528  0.30184217    -0.70000
O1466       O  0.61310617  0.92364659  0.38278207    -0.70600
O1467       O  0.65119204  0.87551104  0.30663795    -0.70200
O1468       O  0.55649925  0.84540275  0.35120414    -0.70800
O1469       O  0.63330623  0.78737769  0.39149052    -0.70200
O1470       O  0.61198375  0.87840150  0.43794077    -0.71000
O1471       O  0.60950836  0.78922303  0.34835763    -0.70400
O1472       O  0.64240865  0.83914087  0.44003804    -0.70800
O1473       O  0.69098272  0.82355445  0.38904048    -0.70700
O1474       O  0.70187150  0.85759646  0.35535837    -0.70500
C1475       C  0.63406301  0.93644409  0.36867684     0.81300
C1476       C  0.54457195  0.86416101  0.36879569     0.81800
C1477       C  0.63086582  0.86346286  0.29096107     0.80700
C1478       C  0.62201356  0.77473644  0.36924058     0.81100
C1479       C  0.62761513  0.85978998  0.45243155     0.82200
C1480       C  0.70940545  0.83542846  0.37131641     0.81300
Zn1481     Zn  0.89980715  0.54357567  0.40214953     1.49700
Zn1482     Zn  0.84005572  0.50133768  0.40090276     1.49400
Zn1483     Zn  0.85260670  0.54726848  0.34861563     1.49100
Zn1484     Zn  0.89484162  0.99237638  0.35542821     1.49500
O1485       O  0.87167367  0.52115979  0.37739098    -1.80000
O1486       O  0.89154266  0.53440391  0.44484562    -0.70600
O1487       O  0.79828954  0.52160880  0.39383606    -0.70400
O1488       O  0.86590247  0.58900350  0.35394286    -0.70000
O1489       O  0.84963869  0.50681779  0.44407566    -0.70600
O1490       O  0.89054386  0.58765823  0.39667421    -0.70200
O1491       O  0.80868922  0.55212617  0.35684339    -0.70800
O1492       O  0.88645895  0.99339117  0.31264519    -0.70200
O1493       O  0.84173516  0.95588792  0.39389762    -0.71000
O1494       O  0.85713429  0.53304000  0.30675970    -0.70400
O1495       O  0.88443179  0.95243419  0.36799175    -0.70800
O1496       O  0.93905847  0.99538690  0.36159943    -0.70700
O1497       O  0.94449879  0.53194158  0.39389679    -0.70500
C1498       C  0.87073013  0.52003007  0.45796013     0.81300
C1499       C  0.79046546  0.54203222  0.37582939     0.81800
C1500       C  0.87696391  0.60183437  0.37629107     0.80700
C1501       C  0.87103430  0.51058846  0.29649660     0.81100
C1502       C  0.86279439  0.94059195  0.38182735     0.82200
C1503       C  0.95563203  0.51150829  0.37766834     0.81300
Zn1504     Zn  0.89571697  0.74312164  0.35019467     1.49700
Zn1505     Zn  0.83862391  0.75100537  0.39279755     1.49400
Zn1506     Zn  0.89746193  0.79283845  0.39861467     1.49100
Zn1507     Zn  0.85461506  0.79881139  0.34246111     1.49500
O1508       O  0.87133703  0.77138743  0.37140182    -1.80000
O1509       O  0.88572403  0.70289427  0.36282611    -0.70600
O1510       O  0.84512555  0.75539476  0.43645466    -0.70400
O1511       O  0.94223390  0.78220520  0.39292837    -0.70000
O1512       O  0.84149258  0.70571093  0.38627025    -0.70600
O1513       O  0.93942074  0.74680122  0.35904183    -0.70200
O1514       O  0.88757282  0.78176363  0.44004162    -0.70800
O1515       O  0.86687919  0.84074844  0.35105229    -0.70200
O1516       O  0.79762447  0.77143863  0.38387411    -0.71000
O1517       O  0.88773806  0.83662358  0.39544246    -0.70400
O1518       O  0.81025774  0.80318061  0.34848348    -0.70800
O1519       O  0.86177872  0.78546149  0.30023325    -0.70700
O1520       O  0.88909433  0.74451951  0.30693713    -0.70500
C1521       C  0.86376523  0.69076778  0.37597046     0.81300
C1522       C  0.86587766  0.76747924  0.45166220     0.81800
C1523       C  0.95456201  0.76234779  0.37693000     0.80700
C1524       C  0.87555024  0.85204717  0.37520560     0.81100
C1525       C  0.79101656  0.79257492  0.36623956     0.82200
C1526       C  0.87523652  0.76252721  0.29027022     0.81300
Zn1527     Zn  0.89599083  0.75833059  0.10053191     1.49700
Zn1528     Zn  0.84046144  0.75311271  0.14547176     1.49400
Zn1529     Zn  0.85198888  0.70477204  0.09672476     1.49100
Zn1530     Zn  0.89810582  0.70912172  0.15060724     1.49500
O1531       O  0.87188900  0.73142852  0.12385210    -1.80000
O1532       O  0.88556763  0.79930903  0.11077485    -0.70600
O1533       O  0.79912255  0.73179828  0.14227418    -0.70400
O1534       O  0.85672687  0.71643791  0.05473497    -0.70000
O1535       O  0.84181581  0.79733528  0.13522563    -0.70600
O1536       O  0.89011639  0.75325985  0.05719688    -0.70200
O1537       O  0.80854007  0.69948673  0.10658294    -0.70800
O1538       O  0.88834002  0.66468062  0.14563892    -0.70200
O1539       O  0.85115778  0.75353756  0.18809680    -0.71000
O1540       O  0.86629851  0.66378220  0.10160052    -0.70400
O1541       O  0.89013153  0.72244697  0.19261502    -0.70800
O1542       O  0.94301324  0.71947734  0.14336807    -0.70700
O1543       O  0.93967836  0.75521182  0.10981082    -0.70500
C1544       C  0.86372990  0.81185346  0.12381506     0.81300
C1545       C  0.79107391  0.71014629  0.12594470     0.81800
C1546       C  0.87333616  0.73583529  0.04255378     0.80700
C1547       C  0.87627858  0.65068978  0.12419400     0.81100
C1548       C  0.87128798  0.74083693  0.20354041     0.82200
C1549       C  0.95513121  0.73944374  0.12729279     0.81300
Zn1550     Zn  0.85094004  0.95547762  0.15707477     1.49700
Zn1551     Zn  0.89879805  0.95796480  0.10346355     1.49400
Zn1552     Zn  0.84044976  0.50170253  0.10491524     1.49100
Zn1553     Zn  0.89560435  0.50841383  0.15116747     1.49500
O1554       O  0.87136631  0.98090823  0.12852213    -1.80000
O1555       O  0.86469805  0.91381066  0.15322189    -0.70600
O1556       O  0.88927799  0.96560180  0.06053586    -0.70400
O1557       O  0.79827252  0.98185144  0.11061812    -0.70000
O1558       O  0.89014450  0.91426691  0.11087395    -0.70600
O1559       O  0.80739377  0.95029849  0.14706284    -0.70200
O1560       O  0.84976361  0.99636322  0.06160685    -0.70800
O1561       O  0.88520972  0.54889553  0.14027903    -0.70200
O1562       O  0.94363978  0.96986998  0.10992379    -0.71000
O1563       O  0.84326453  0.54689789  0.11301945    -0.70400
O1564       O  0.93972845  0.50542446  0.14348412    -0.70800
O1565       O  0.88816408  0.50622568  0.19409850    -0.70700
O1566       O  0.85441217  0.97001592  0.19892907    -0.70500
C1567       C  0.87647150  0.90055016  0.13147637     0.81300
C1568       C  0.86933982  0.98125713  0.04751240     0.81800
C1569       C  0.78987333  0.96083856  0.12766919     0.80700
C1570       C  0.86415807  0.56146854  0.12618793     0.81100
C1571       C  0.95553177  0.98983322  0.12616833     0.82200
C1572       C  0.87061435  0.99061373  0.20975361     0.81300
Zn1573     Zn  0.10681911  0.99286930  0.10042996     1.49700
Zn1574     Zn  0.16052348  0.99893396  0.14823033     1.49400
Zn1575     Zn  0.14890143  0.54770511  0.09897027     1.49100
Zn1576     Zn  0.10116084  0.54091637  0.15164543     1.49500
O1577       O  0.12921775  0.51996462  0.12536054    -1.80000
O1578       O  0.11670886  0.95209741  0.11208272    -0.70600
O1579       O  0.20232037  0.51992491  0.14412246    -0.70400
O1580       O  0.14489302  0.53764670  0.05626189    -0.70000
O1581       O  0.15871732  0.95430597  0.13927702    -0.70600
O1582       O  0.11548203  0.49770932  0.05718858    -0.70200
O1583       O  0.19232109  0.55226675  0.10855464    -0.70800
O1584       O  0.11012177  0.58576532  0.14856189    -0.70200
O1585       O  0.14942233  0.49950985  0.19109193    -0.71000
O1586       O  0.13491148  0.58853471  0.10599018    -0.70400
O1587       O  0.10761850  0.52704371  0.19390456    -0.70800
O1588       O  0.05687165  0.52987045  0.14174787    -0.70700
O1589       O  0.06231057  0.99574181  0.10684927    -0.70500
C1590       C  0.13745266  0.93969234  0.12685290     0.81300
C1591       C  0.21020002  0.54143581  0.12744261     0.81800
C1592       C  0.13089060  0.51688755  0.04322511     0.80700
C1593       C  0.12334028  0.60068156  0.12839999     0.81100
C1594       C  0.12765349  0.51052427  0.20576218     0.82200
C1595       C  0.04575794  0.51064330  0.12416034     0.81300
Zn1596     Zn  0.14747072  0.79801886  0.09619213     1.49700
Zn1597     Zn  0.10101278  0.79187677  0.14960216     1.49400
Zn1598     Zn  0.10453697  0.74306937  0.09915032     1.49100
Zn1599     Zn  0.15950938  0.74921068  0.14511458     1.49500
O1600       O  0.12800037  0.77035520  0.12285445    -1.80000
O1601       O  0.13424287  0.83913165  0.10382844    -0.70600
O1602       O  0.05652247  0.78101626  0.14228518    -0.70400
O1603       O  0.11041408  0.74908889  0.05549921    -0.70000
O1604       O  0.11039780  0.83616642  0.14684001    -0.70600
O1605       O  0.14118026  0.78812693  0.05358133    -0.70200
O1606       O  0.06057531  0.74549932  0.10859552    -0.70800
O1607       O  0.15744015  0.70443207  0.13692788    -0.70200
O1608       O  0.10859057  0.77904101  0.19128538    -0.71000
O1609       O  0.11509059  0.70198684  0.11027768    -0.70400
O1610       O  0.14940717  0.75027141  0.18781344    -0.70800
O1611       O  0.20079098  0.77071188  0.14142823    -0.70700
O1612       O  0.19130586  0.80267657  0.10537166    -0.70500
C1613       C  0.12357870  0.85108983  0.12676559     0.81300
C1614       C  0.04483167  0.76081595  0.12626277     0.81800
C1615       C  0.12559192  0.76810649  0.04101788     0.80700
C1616       C  0.13594294  0.68967840  0.12504501     0.81100
C1617       C  0.12850154  0.76228192  0.20277732     0.82200
C1618       C  0.20876073  0.79230936  0.12494501     0.81300
Zn1619     Zn  0.15827989  0.75268849  0.39498681     1.49700
Zn1620     Zn  0.14682834  0.70791635  0.34146371     1.49400
Zn1621     Zn  0.10089214  0.70829596  0.39613230     1.49100
Zn1622     Zn  0.10253716  0.76018215  0.34938872     1.49500
O1623       O  0.12726822  0.73241322  0.37118522    -1.80000
O1624       O  0.20013305  0.73235679  0.38810251    -0.70600
O1625       O  0.13338506  0.66619782  0.34413076    -0.70400
O1626       O  0.11047485  0.71508340  0.43901374    -0.70000
O1627       O  0.19038470  0.70270838  0.35024821    -0.70600
O1628       O  0.14884440  0.74712226  0.43855368    -0.70200
O1629       O  0.10956850  0.66486388  0.38729680    -0.70800
O1630       O  0.05921194  0.75753916  0.35948567    -0.70200
O1631       O  0.14231500  0.72310887  0.30015017    -0.71000
O1632       O  0.05618717  0.72019479  0.39125972    -0.70400
O1633       O  0.10750985  0.75818366  0.30593841    -0.70800
O1634       O  0.11379766  0.80045889  0.35972733    -0.70700
O1635       O  0.15582671  0.79801095  0.38683547    -0.70500
C1636       C  0.20818635  0.71222570  0.36985968     0.81300
C1637       C  0.12249577  0.65202985  0.36571008     0.81800
C1638       C  0.12960644  0.73130293  0.45236829     0.80700
C1639       C  0.04401728  0.74119726  0.37658957     0.81100
C1640       C  0.12512756  0.74315561  0.28977353     0.82200
C1641       C  0.13509167  0.81280790  0.37359799     0.81300
Zn1642     Zn  0.10690594  0.51026578  0.39775437     1.49700
Zn1643     Zn  0.15018221  0.95641448  0.40002823     1.49400
Zn1644     Zn  0.10138364  0.96078177  0.34820775     1.49100
Zn1645     Zn  0.16018672  0.50415532  0.35011171     1.49500
O1646       O  0.12946623  0.98296424  0.37332639    -1.80000
O1647       O  0.11578794  0.00634101  0.44050479    -0.70600
O1648       O  0.13628681  0.91547483  0.39568490    -0.70400
O1649       O  0.05694176  0.97178807  0.35834765    -0.70000
O1650       O  0.14707526  0.96776622  0.44201147    -0.70600
O1651       O  0.06263428  0.50672088  0.39236579    -0.70200
O1652       O  0.11072903  0.91609216  0.35347113    -0.70800
O1653       O  0.14860957  0.00226808  0.30755028    -0.70200
O1654       O  0.19320819  0.95176057  0.38970927    -0.71000
O1655       O  0.10781951  0.97322620  0.30535161    -0.70400
O1656       O  0.20247868  0.98407368  0.35400422    -0.70800
O1657       O  0.15778614  0.54885579  0.35862110    -0.70700
O1658       O  0.11592924  0.55095546  0.38598955    -0.70500
C1659       C  0.13217344  0.98814525  0.45460722     0.81300
C1660       C  0.12429594  0.90222157  0.37418822     0.81800
C1661       C  0.04593572  0.99123201  0.37580731     0.80700
C1662       C  0.12736073  0.99006071  0.29312318     0.81100
C1663       C  0.21077372  0.96271579  0.37068521     0.82200
C1664       C  0.13654087  0.56340344  0.37118436     0.81300
C1665       C  0.13405204  0.84454221  0.37422672    -0.09100
C1666       C  0.12840521  0.87070248  0.37323087    -0.10700
C1667       C  0.13400083  0.59481808  0.36795292    -0.09100
C1668       C  0.12759555  0.62073125  0.36656780    -0.10700
C1669       C  0.12702950  0.75595680  0.23347472    -0.09100
C1670       C  0.12603471  0.74965796  0.25909096    -0.10700
C1671       C  0.12872359  0.88223521  0.13026531    -0.09100
C1672       C  0.13509603  0.90821360  0.13009782    -0.10700
C1673       C  0.13336122  0.65823676  0.12932307    -0.09100
C1674       C  0.12740815  0.63215591  0.13092512    -0.10700
C1675       C  0.12535339  0.99638701  0.26217235    -0.09100
C1676       C  0.12554959  0.50331381  0.23652537    -0.10700
C1677       C  0.98750308  0.99629867  0.12462797    -0.09100
C1678       C  0.01378018  0.50402271  0.12445169    -0.10700
C1679       C  0.86568693  0.84333592  0.12683989    -0.09100
C1680       C  0.87165164  0.86927529  0.12917409    -0.10700
C1681       C  0.87155456  0.61927494  0.12556922    -0.09100
C1682       C  0.86564692  0.59317123  0.12511085    -0.10700
C1683       C  0.98701560  0.74574800  0.12917441    -0.09100
C1684       C  0.01315516  0.75371403  0.12869144    -0.10700
C1685       C  0.98627181  0.75583582  0.37953359    -0.09100
C1686       C  0.01237191  0.74785132  0.37952945    -0.10700
C1687       C  0.87311999  0.74843636  0.23408236    -0.09100
C1688       C  0.87418598  0.75586490  0.25948416    -0.10700
C1689       C  0.86345381  0.90885767  0.38311794    -0.09100
C1690       C  0.86938410  0.88288043  0.38035426    -0.10700
C1691       C  0.86559993  0.65919951  0.37917763    -0.09100
C1692       C  0.87176302  0.63312601  0.37906132    -0.10700
C1693       C  0.98764573  0.50514042  0.37764870    -0.09100
C1694       C  0.01389455  0.99741695  0.37646599    -0.10700
C1695       C  0.86920189  0.50389809  0.26590514    -0.09100
C1696       C  0.86901462  0.99708052  0.24040598    -0.10700
C1697       C  0.73874897  0.82154559  0.36858200    -0.09100
C1698       C  0.76181938  0.80698604  0.36742482    -0.10700
C1699       C  0.62485520  0.99394002  0.36476119    -0.09100
C1700       C  0.63108322  0.96788852  0.36501533    -0.10700
C1701       C  0.62561582  0.74316922  0.36777336    -0.09100
C1702       C  0.63137423  0.71712233  0.37021464    -0.10700
C1703       C  0.73751074  0.57006430  0.37787319    -0.09100
C1704       C  0.76094979  0.55594637  0.37747462    -0.10700
C1705       C  0.73748169  0.93220465  0.12255173    -0.09100
C1706       C  0.76062270  0.94668424  0.12429081    -0.10700
C1707       C  0.63068849  0.87003132  0.26015680    -0.09100
C1708       C  0.63122149  0.87738522  0.23472634    -0.10700
C1709       C  0.62683441  0.75857633  0.13078509    -0.09100
C1710       C  0.63244001  0.78468907  0.12879753    -0.10700
C1711       C  0.63443266  0.53430410  0.13502827    -0.09100
C1712       C  0.62824762  0.50828153  0.13531964    -0.10700
C1713       C  0.76222728  0.69562887  0.12990895    -0.09100
C1714       C  0.73921787  0.68100188  0.13072319    -0.10700
C1715       C  0.62978060  0.62512977  0.26544030    -0.09100
C1716       C  0.62949916  0.63249475  0.23993957    -0.10700
C1717       C  0.26292741  0.93393790  0.36938531    -0.09100
C1718       C  0.24009447  0.94882664  0.36796104    -0.10700
C1719       C  0.48655747  0.87894334  0.36907819    -0.09100
C1720       C  0.51261877  0.87066786  0.36777540    -0.10700
C1721       C  0.36748081  0.78498927  0.37239987    -0.09100
C1722       C  0.37335336  0.75897562  0.36997644    -0.10700
C1723       C  0.37167930  0.50855101  0.36623376    -0.09100
C1724       C  0.36519806  0.53456473  0.36631645    -0.10700
C1725       C  0.26026204  0.68285187  0.37260294    -0.09100
C1726       C  0.23734605  0.69774134  0.37197946    -0.10700
C1727       C  0.48571848  0.63101548  0.36857199    -0.09100
C1728       C  0.51189386  0.62307137  0.36952632    -0.10700
C1729       C  0.23736043  0.80733938  0.12922179    -0.09100
C1730       C  0.26007520  0.82243643  0.13057144    -0.10700
C1731       C  0.48584813  0.87327007  0.13621185    -0.09100
C1732       C  0.51202746  0.88111995  0.13537020    -0.10700
C1733       C  0.37009439  0.87796032  0.26614905    -0.09100
C1734       C  0.36964421  0.87087226  0.24066855    -0.10700
C1735       C  0.37152371  0.99573854  0.13506309    -0.09100
C1736       C  0.36510354  0.96973761  0.13516071    -0.10700
C1737       C  0.37280848  0.74499045  0.13143141    -0.09100
C1738       C  0.36713149  0.71895155  0.12898614    -0.10700
C1739       C  0.26223875  0.57057020  0.12934451    -0.09100
C1740       C  0.23937806  0.55567326  0.13018386    -0.10700
C1741       C  0.48694669  0.62350989  0.13060566    -0.09100
C1742       C  0.51323472  0.63113454  0.13145043    -0.10700
C1743       C  0.36901323  0.63266996  0.26118366    -0.09100
C1744       C  0.36942329  0.62569004  0.23558980    -0.10700
C1745       C  0.13289888  0.98961764  0.51198498    -0.09100
C1746       C  0.13316771  0.98999671  0.48571922    -0.10700
C1747       C  0.12860848  0.73157757  0.51059367    -0.09100
C1748       C  0.12929680  0.73170136  0.48404084    -0.10700
C1749       C  0.13063504  0.84357132  0.62165774    -0.09100
C1750       C  0.12528611  0.86975590  0.62330458    -0.10700
C1751       C  0.12968951  0.61965247  0.62830296    -0.09100
C1752       C  0.13612812  0.59372714  0.62725559    -0.10700
C1753       C  0.12500375  0.76755778  0.98309160    -0.09100
C1754       C  0.12499102  0.76722923  0.00954322    -0.10700
C1755       C  0.13462554  0.75572431  0.75986900    -0.09100
C1756       C  0.13465631  0.74914658  0.73435551    -0.10700
C1757       C  0.13273311  0.51566980  0.98539701    -0.09100
C1758       C  0.13218547  0.51545560  0.01182443    -0.10700
C1759       C  0.13360205  0.90814642  0.87783912    -0.09100
C1760       C  0.12726834  0.88218340  0.87620336    -0.10700
C1761       C  0.13047682  0.63227090  0.87754765    -0.09100
C1762       C  0.13643394  0.65834937  0.87895453    -0.10700
C1763       C  0.12671029  0.50410675  0.76077875    -0.09100
C1764       C  0.12765315  0.99694850  0.73521405    -0.10700
C1765       C  0.86872815  0.98166984  0.01587681    -0.09100
C1766       C  0.86823691  0.98152109  0.98933812    -0.10700
C1767       C  0.98692984  0.99631615  0.88437308    -0.09100
C1768       C  0.01302148  0.50450950  0.88357643    -0.10700
C1769       C  0.87337615  0.73771614  0.01132520    -0.09100
C1770       C  0.87321526  0.73762004  0.98499482    -0.10700
C1771       C  0.87184811  0.86883223  0.87276565    -0.09100
C1772       C  0.86571253  0.84282726  0.87286431    -0.10700
C1773       C  0.86946576  0.61875646  0.87466400    -0.09100
C1774       C  0.86378701  0.59269194  0.87708665    -0.10700
C1775       C  0.98639667  0.74400526  0.86692256    -0.09100
C1776       C  0.01252864  0.75213591  0.86733780    -0.10700
C1777       C  0.86493631  0.76513031  0.48297246    -0.09100
C1778       C  0.86549093  0.76458297  0.50936697    -0.10700
C1779       C  0.98542065  0.75175435  0.62194274    -0.09100
C1780       C  0.01158830  0.74368826  0.62168969    -0.10700
C1781       C  0.87313446  0.75341714  0.73474884    -0.09100
C1782       C  0.87265457  0.74628953  0.76042504    -0.10700
C1783       C  0.87094332  0.51890993  0.48949700    -0.09100
C1784       C  0.87104907  0.51867117  0.51598658    -0.10700
C1785       C  0.86745056  0.90766760  0.62443903    -0.09100
C1786       C  0.87347248  0.88153046  0.62493071    -0.10700
C1787       C  0.87020984  0.63186222  0.62873428    -0.09100
C1788       C  0.86386092  0.65772314  0.62641315    -0.10700
C1789       C  0.98807702  0.50668067  0.62559576    -0.09100
C1790       C  0.01431600  0.99885694  0.62551096    -0.10700
C1791       C  0.87079271  0.99781047  0.76532486    -0.09100
C1792       C  0.87024519  0.50435377  0.73978692    -0.10700
C1793       C  0.37296182  0.89552272  0.49058630    -0.09100
C1794       C  0.37252503  0.89568881  0.51711805    -0.10700
C1795       C  0.26301600  0.93165640  0.63066577    -0.09100
C1796       C  0.23990598  0.94615268  0.62945170    -0.10700
C1797       C  0.37200633  0.64069729  0.51185297    -0.09100
C1798       C  0.37249955  0.64031077  0.48547701    -0.10700
C1799       C  0.37154225  0.75914892  0.62050070    -0.09100
C1800       C  0.36607617  0.78534509  0.62005186    -0.10700
C1801       C  0.36381343  0.53457522  0.62221251    -0.09100
C1802       C  0.37013698  0.50868389  0.62505225    -0.10700
C1803       C  0.26121129  0.68337464  0.61536436    -0.09100
C1804       C  0.23818655  0.69812462  0.61520266    -0.10700
C1805       C  0.37556142  0.86391388  0.99106534    -0.09100
C1806       C  0.37518971  0.86396119  0.01741513    -0.10700
C1807       C  0.26043544  0.82199658  0.87722003    -0.09100
C1808       C  0.23764982  0.80706133  0.87566893    -0.10700
C1809       C  0.36930444  0.87192915  0.76771519    -0.09100
C1810       C  0.37100887  0.87906210  0.74223386    -0.10700
C1811       C  0.37265664  0.60833880  0.98388079    -0.09100
C1812       C  0.37333116  0.60861901  0.01040014    -0.10700
C1813       C  0.36574911  0.96892601  0.87414430    -0.09100
C1814       C  0.37183453  0.99482707  0.87127552    -0.10700
C1815       C  0.36320662  0.71855707  0.87751162    -0.09100
C1816       C  0.36906889  0.74465833  0.87739279    -0.10700
C1817       C  0.23816813  0.55563520  0.87519745    -0.09100
C1818       C  0.26111637  0.57046143  0.87563035    -0.10700
C1819       C  0.36553159  0.62511919  0.76000132    -0.09100
C1820       C  0.36549341  0.63222195  0.73456553    -0.10700
C1821       C  0.62838662  0.86181128  0.48371955    -0.09100
C1822       C  0.62892898  0.86203740  0.51009301    -0.10700
C1823       C  0.73869343  0.82094336  0.63007386    -0.09100
C1824       C  0.76152803  0.80608238  0.63046889    -0.10700
C1825       C  0.51474206  0.87352097  0.62723501    -0.09100
C1826       C  0.48861686  0.88157703  0.62789778    -0.10700
C1827       C  0.62565286  0.60799163  0.48984252    -0.09100
C1828       C  0.62708486  0.60808062  0.51629792    -0.10700
C1829       C  0.62924686  0.99466696  0.62992554    -0.09100
C1830       C  0.63553600  0.96881443  0.62730328    -0.10700
C1831       C  0.63429167  0.71855836  0.62494728    -0.09100
C1832       C  0.62838815  0.74470067  0.62530437    -0.10700
C1833       C  0.73813138  0.57023243  0.62353195    -0.09100
C1834       C  0.76110710  0.55525288  0.62337935    -0.10700
C1835       C  0.48636250  0.63073798  0.62028304    -0.09100
C1836       C  0.51241020  0.62243733  0.62105061    -0.10700
C1837       C  0.61840797  0.89445981  0.98532531    -0.09100
C1838       C  0.61834967  0.89450664  0.01176061    -0.10700
C1839       C  0.73710303  0.93188669  0.87664666    -0.09100
C1840       C  0.76041696  0.94621724  0.87685064    -0.10700
C1841       C  0.51144675  0.87944095  0.86556685    -0.09100
C1842       C  0.48535125  0.87141060  0.86706160    -0.10700
C1843       C  0.62953937  0.87155400  0.73512897    -0.09100
C1844       C  0.62984752  0.87861184  0.76076174    -0.10700
C1845       C  0.62820540  0.63944884  0.98886496    -0.09100
C1846       C  0.62811237  0.63929023  0.01528544    -0.10700
C1847       C  0.63383625  0.78451764  0.86970369    -0.09100
C1848       C  0.62782172  0.75841547  0.86962393    -0.10700
C1849       C  0.62454755  0.50862628  0.86385405    -0.09100
C1850       C  0.63081528  0.53457323  0.86611174    -0.10700
C1851       C  0.76000891  0.69791812  0.86845809    -0.09100
C1852       C  0.73707700  0.68316998  0.86971234    -0.10700
C1853       C  0.51256268  0.63167013  0.87361610    -0.09100
C1854       C  0.48644582  0.62361454  0.87297033    -0.10700
C1855       C  0.62783668  0.62359358  0.74030451    -0.09100
C1856       C  0.62809240  0.63080205  0.76572529    -0.10700
loop_ 
_geom_bond_atom_site_label_1 
_geom_bond_atom_site_label_2 
_geom_bond_distance 
_geom_bond_site_symmetry_2 
_ccdc_geom_bond_type 
Zn1           O5   1.957       .  S
Zn1           O6   2.052       .  S
Zn1          O10   2.059       .  S
Zn1          O17   2.030       .  S
Zn2           O5   1.939       .  S
Zn2           O7   2.015       .  S
Zn2           O9   1.979       .  S
Zn2          O13   1.990       .  S
Zn3           O5   1.934       .  S
Zn3           O8   1.983       .  S
Zn3          O11   2.017       .  S
Zn3          O14   1.973       .  S
Zn4           O5   1.965       .  S
Zn4          O12   2.052       .  S
Zn4          O15   2.066       .  S
Zn4          O16   1.990       .  S
O6           C18   1.278       .  A
O7           C19   1.272       .  A
O8           C20   1.267       .  A
O9           C18   1.269       .  A
O10          C20   1.278       .  A
O11          C19   1.272       .  A
O12          C21   1.279       .  A
O13          C22   1.268       .  A
O14          C21   1.267       .  A
O15          C22   1.279       .  A
O16          C23   1.267       .  A
O17          C23   1.273       .  A
C18         C920   1.435       .  S
C19         C917   1.434       .  S
C20         C925   1.438       .  S
C21         C922   1.434       .  S
C22         C924   1.444       .  S
C23         C928   1.432       .  S
Zn24         O28   1.973       .  S
Zn24         O29   2.090       .  S
Zn24         O33   2.031       .  S
Zn24         O40   2.063       .  S
Zn25         O28   1.945       .  S
Zn25         O30   1.965       .  S
Zn25         O32   1.984       .  S
Zn25         O36   2.010       .  S
Zn26         O28   1.970       .  S
Zn26         O31   2.040       .  S
Zn26         O34   2.063       .  S
Zn26         O37   2.065       .  S
Zn27         O28   1.941       .  S
Zn27         O35   1.978       .  S
Zn27         O38   2.018       .  S
Zn27         O39   1.961       .  S
O29          C41   1.282       .  A
O30          C42   1.267       .  A
O31          C43   1.275       .  A
O32          C41   1.266       .  A
O33          C43   1.273       .  A
O34          C42   1.279       .  A
O35          C44   1.266       .  A
O36          C45   1.270       .  A
O37          C44   1.278       .  A
O38          C45   1.270       .  A
O39          C46   1.265       .  A
O40          C46   1.280       .  A
C41         C911   1.448       .  S
C42        C1849   1.433       .  S
C43         C916   1.445       .  S
C44         C913   1.439       .  S
C45         C909   1.435       .  S
C46         C919   1.433       .  S
Zn47         O51   1.954       .  S
Zn47         O52   1.996       .  S
Zn47         O56   1.987       .  S
Zn47         O63   2.033       .  S
Zn48         O51   1.973       .  S
Zn48         O53   2.034       .  S
Zn48         O55   2.089       .  S
Zn48         O59   2.080       .  S
Zn49         O51   1.955       .  S
Zn49         O54   2.029       .  S
Zn49         O57   2.014       .  S
Zn49         O60   2.059       .  S
Zn50         O51   1.934       .  S
Zn50         O58   1.978       .  S
Zn50         O61   1.944       .  S
Zn50         O62   1.989       .  S
O52          C64   1.268       .  A
O53          C65   1.274       .  A
O54          C66   1.276       .  A
O55          C64   1.281       .  A
O56          C66   1.270       .  A
O57          C65   1.271       .  A
O58          C67   1.266       .  A
O59          C68   1.283       .  A
O60          C67   1.277       .  A
O61          C68   1.263       .  A
O62          C69   1.267       .  A
O63          C69   1.274       .  A
C64         C905   1.452       .  S
C65         C900   1.439       .  S
C66        C1829   1.430   1_545  S
C67         C908   1.438       .  S
C68         C903   1.433       .  S
C69         C927   1.432       .  S
Zn70         O74   1.962       .  S
Zn70         O75   2.064       .  S
Zn70         O79   2.055       .  S
Zn70         O86   2.067       .  S
Zn71         O74   1.938       .  S
Zn71         O76   1.962       .  S
Zn71         O78   1.978       .  S
Zn71         O82   2.011       .  S
Zn72         O74   1.965       .  S
Zn72         O77   2.009       .  S
Zn72         O80   2.047       .  S
Zn72         O83   2.061       .  S
Zn73         O74   1.941       .  S
Zn73         O81   1.978       .  S
Zn73         O84   2.005       .  S
Zn73         O85   1.963       .  S
O75          C87   1.279       .  A
O76          C88   1.266       .  A
O77          C89   1.270       .  A
O78          C87   1.267       .  A
O79          C89   1.276       .  A
O80          C88   1.278       .  A
O81          C90   1.266       .  A
O82          C91   1.270       .  A
O83          C90   1.278       .  A
O84          C91   1.269       .  A
O85          C92   1.266       .  A
O86          C92   1.281       .  A
C87         C897   1.438       .  S
C88         C902   1.429       .  S
C89         C915   1.445       .  S
C90         C895   1.439       .  S
C91         C894   1.431       .  S
C92         C904   1.434       .  S
Zn93         O97   1.953       .  S
Zn93         O98   1.983       .  S
Zn93        O102   1.989       .  S
Zn93        O109   2.028       .  S
Zn94         O97   1.973       .  S
Zn94         O99   2.032       .  S
Zn94        O101   2.080       .  S
Zn94        O105   2.071       .  S
Zn95         O97   1.955       .  S
Zn95        O100   2.036       .  S
Zn95        O103   2.027       .  S
Zn95        O106   2.062       .  S
Zn96         O97   1.933       .  S
Zn96        O104   1.978       .  S
Zn96        O107   1.942       .  S
Zn96        O108   1.987       .  S
O98         C110   1.266       .  A
O99         C111   1.274       .  A
O100        C112   1.276       .  A
O101        C110   1.280       .  A
O102        C112   1.270       .  A
O103        C111   1.273       .  A
O104        C113   1.266       .  A
O105        C114   1.281       .  A
O106        C113   1.278       .  A
O107        C114   1.262       .  A
O108        C115   1.267       .  A
O109        C115   1.272       .  A
C110        C890   1.446       .  S
C111        C883   1.442       .  S
C112       C1814   1.433   1_545  S
C113        C926   1.438       .  S
C114        C887   1.430       .  S
C115        C891   1.431       .  S
Zn116       O120   1.940       .  S
Zn116       O121   1.994       .  S
Zn116       O125   1.965       .  S
Zn116       O132   1.978       .  S
Zn117       O120   1.937       .  S
Zn117       O122   1.987       .  S
Zn117       O124   2.016       .  S
Zn117       O128   1.965       .  S
Zn118       O120   1.959       .  S
Zn118       O123   2.057       .  S
Zn118       O126   2.057       .  S
Zn118       O129   2.032       .  S
Zn119       O120   1.964       .  S
Zn119       O127   2.012       .  S
Zn119       O130   2.054       .  S
Zn119       O131   2.076       .  S
O121        C133   1.269       .  A
O122        C134   1.268       .  A
O123        C135   1.279       .  A
O124        C133   1.271       .  A
O125        C135   1.266       .  A
O126        C134   1.277       .  A
O127        C136   1.270       .  A
O128        C137   1.266       .  A
O129        C136   1.274       .  A
O130        C137   1.279       .  A
O131        C138   1.280       .  A
O132        C138   1.265       .  A
C133        C877   1.429       .  S
C134        C914   1.439       .  S
C135        C888   1.432       .  S
C136        C881   1.439       .  S
C137        C885   1.432       .  S
C138        C879   1.444       .  S
Zn139       O143   1.954       .  S
Zn139       O144   2.061       .  S
Zn139       O148   2.036       .  S
Zn139       O155   2.009       .  S
Zn140       O143   1.928       .  S
Zn140       O145   1.986       .  S
Zn140       O147   1.978       .  S
Zn140       O151   1.948       .  S
Zn141       O143   1.947       .  S
Zn141       O146   1.989       .  S
Zn141       O149   2.028       .  S
Zn141       O152   1.985       .  S
Zn142       O143   1.971       .  S
Zn142       O150   2.078       .  S
Zn142       O153   2.073       .  S
Zn142       O154   2.015       .  S
O144        C156   1.277       .  A
O145        C157   1.267       .  A
O146        C158   1.271       .  A
O147        C156   1.266       .  A
O148        C158   1.276       .  A
O149        C157   1.273       .  A
O150        C159   1.280       .  A
O151        C160   1.263       .  A
O152        C159   1.267       .  A
O153        C160   1.281       .  A
O154        C161   1.272       .  A
O155        C161   1.271       .  A
C156        C907   1.438       .  S
C157        C892   1.430       .  S
C158        C871   1.433       .  S
C159        C875   1.446       .  S
C160        C873   1.433       .  S
C161        C869   1.431       .  S
Zn162       O166   1.972       .  S
Zn162       O167   2.034       .  S
Zn162       O171   2.070       .  S
Zn162       O178   2.064       .  S
Zn163       O166   1.957       .  S
Zn163       O168   2.032       .  S
Zn163       O170   2.025       .  S
Zn163       O174   2.060       .  S
Zn164       O166   1.957       .  S
Zn164       O169   1.983       .  S
Zn164       O172   2.000       .  S
Zn164       O175   2.040       .  S
Zn165       O166   1.934       .  S
Zn165       O173   2.004       .  S
Zn165       O176   1.980       .  S
Zn165       O177   1.953       .  S
O167        C179   1.273       .  A
O168        C180   1.275       .  A
O169        C181   1.267       .  A
O170        C179   1.272       .  A
O171        C181   1.280       .  A
O172        C180   1.272       .  A
O173        C182   1.269       .  A
O174        C183   1.278       .  A
O175        C182   1.274       .  A
O176        C183   1.267       .  A
O177        C184   1.264       .  A
O178        C184   1.280       .  A
C179        C866   1.443       .  S
C180       C1802   1.436       .  S
C181        C867   1.443       .  S
C182        C882   1.439       .  S
C183        C898   1.438       .  S
C184        C872   1.431       .  S
Zn185       O189   1.952       .  S
Zn185       O190   1.989       .  S
Zn185       O194   1.980       .  S
Zn185       O201   2.021       .  S
Zn186       O189   1.973   1_565  S
Zn186       O191   2.030   1_565  S
Zn186       O193   2.093   1_565  S
Zn186      O1125   2.085       .  S
Zn187       O189   1.957       .  S
Zn187       O192   2.033       .  S
Zn187       O195   2.023       .  S
Zn187       O198   2.069       .  S
Zn188      O1117   1.933       .  S
Zn188       O196   1.976       .  S
Zn188       O199   1.945       .  S
Zn188       O200   1.983       .  S
O189      Zn1116   1.933   1_545  S
O190        C202   1.267       .  A
O191        C203   1.273       .  A
O192        C204   1.276       .  A
O193        C202   1.282       .  A
O194        C204   1.269       .  A
O195        C203   1.273       .  A
O196       C1133   1.265       .  A
O197      Zn1114   2.085       .  S
O197        C206   1.283       .  A
O198        C205   1.278       .  A
O199        C206   1.263       .  A
O200       C1135   1.266       .  A
O201        C207   1.272       .  A
C202        C906   1.452       .  S
C203        C856   1.439       .  S
C204        C859   1.429       .  S
C205       O1124   1.265   1_545  A
C205        C861   1.440       .  S
C206        C857   1.435       .  S
C207       O1128   1.266   1_545  A
C207        C864   1.428       .  S
Zn208       O212   1.940       .  S
Zn208       O213   1.960       .  S
Zn208       O217   1.970       .  S
Zn208       O224   2.002       .  S
Zn209       O212   1.964       .  S
Zn209       O214   2.066       .  S
Zn209       O216   2.076       .  S
Zn209       O220   2.072       .  S
Zn210       O212   1.969       .  S
Zn210       O215   2.069       .  S
Zn210       O218   2.016       .  S
Zn210       O221   2.048       .  S
Zn211       O212   1.939       .  S
Zn211       O219   1.960       .  S
Zn211       O222   1.981       .  S
Zn211       O223   2.018       .  S
O213        C225   1.265       .  A
O214        C226   1.278       .  A
O215        C227   1.279       .  A
O216        C225   1.282       .  A
O217        C227   1.265       .  A
O218        C226   1.271       .  A
O219        C228   1.265       .  A
O220        C229   1.280       .  A
O221        C228   1.278       .  A
O222        C229   1.267       .  A
O223        C230   1.270       .  A
O224        C230   1.268       .  A
C225        C858   1.436       .  S
C226        C853   1.449       .  S
C227        C896   1.439       .  S
C228        C860   1.428       .  S
C229        C851   1.441       .  S
C230        C850   1.433       .  S
Zn231       O235   1.938       .  S
Zn231       O236   1.995       .  S
Zn231       O240   1.955       .  S
Zn231       O247   1.970       .  S
Zn232       O235   1.935       .  S
Zn232       O237   1.970       .  S
Zn232       O239   2.003       .  S
Zn232       O243   1.949       .  S
Zn233       O235   1.964       .  S
Zn233       O238   2.077       .  S
Zn233       O241   2.076       .  S
Zn233       O244   2.062       .  S
Zn234       O235   1.967       .  S
Zn234       O242   2.024       .  S
Zn234       O245   2.058       .  S
Zn234       O246   2.084       .  S
O236        C248   1.268       .  A
O237        C249   1.265       .  A
O238        C250   1.283       .  A
O239        C248   1.268       .  A
O240        C250   1.265       .  A
O241        C249   1.280       .  A
O242        C251   1.273       .  A
O243        C252   1.264       .  A
O244        C251   1.278       .  A
O245        C252   1.280       .  A
O246        C253   1.280       .  A
O247        C253   1.265       .  A
C248        C842   1.427       .  S
C249        C847   1.440       .  S
C250        C845   1.434       .  S
C251        C854   1.450       .  S
C252        C844   1.428       .  S
C253        C923   1.444       .  S
Zn254       O258   1.948       .  S
Zn254       O259   2.010       .  S
Zn254       O263   1.978       .  S
Zn254       O270   1.971       .  S
Zn255      O1186   1.934   1_545  S
Zn255       O260   1.937       .  S
Zn255       O262   1.991       .  S
Zn255       O266   1.974       .  S
Zn256      O1186   1.974   1_545  S
Zn256       O264   2.084       .  S
Zn256      O1189   2.092   1_545  S
Zn256      O1195   2.043   1_545  S
Zn257       O258   1.959       .  S
Zn257       O265   2.026       .  S
Zn257       O268   2.071       .  S
Zn257       O269   2.043       .  S
O258      Zn1183   1.934       .  S
O258      Zn1184   1.974       .  S
O259        C271   1.270       .  A
O260        C272   1.262       .  A
O261      Zn1184   2.092       .  S
O261        C273   1.282       .  A
O262       C1199   1.267   1_545  A
O263        C273   1.265       .  A
O264        C272   1.283       .  A
O265        C274   1.273       .  A
O266       C1203   1.265   1_545  A
O267      Zn1184   2.043       .  S
O267        C274   1.276       .  A
O268        C275   1.279       .  A
O269        C276   1.278       .  A
O270        C276   1.268       .  A
C271       O1190   1.267       .  A
C271        C863   1.428       .  S
C272        C846   1.432       .  S
C273        C912   1.448       .  S
C274        C838   1.444       .  S
C275       O1194   1.265       .  A
C275        C839   1.440       .  S
C276        C843   1.429       .  S
Zn277       O281   1.975   1_565  S
Zn277       O286   2.022   1_565  S
Zn277       O293   2.071   1_565  S
Zn277      O1210   2.067       .  S
Zn278      O1209   1.934       .  S
Zn278       O283   1.986       .  S
Zn278       O285   1.951       .  S
Zn278       O289   2.007       .  S
Zn279       O281   1.957       .  S
Zn279       O284   2.009       .  S
Zn279       O287   2.059       .  S
Zn279       O290   2.032       .  S
Zn280       O281   1.954       .  S
Zn280       O288   2.002       .  S
Zn280       O291   2.052       .  S
Zn280       O292   1.994       .  S
O281      Zn1206   1.934   1_545  S
O282      Zn1205   2.067       .  S
O282        C294   1.280       .  A
O283       C1223   1.267       .  A
O284        C296   1.270       .  A
O285        C294   1.264       .  A
O286        C296   1.271       .  A
O287        C295   1.278       .  A
O288        C297   1.273       .  A
O289       C1226   1.270       .  A
O290        C297   1.275       .  A
O291        C298   1.276       .  A
O292        C299   1.268       .  A
O293        C299   1.279       .  A
C294        C831   1.431       .  S
C295       O1211   1.267   1_545  A
C295        C840   1.440       .  S
C296        C829   1.435       .  S
C297        C833   1.435       .  S
C298       O1217   1.270   1_545  A
C298        C835   1.443       .  S
C299        C889   1.446       .  S
Zn300       O304   1.957       .  S
Zn300       O305   2.071       .  S
Zn300       O309   2.041       .  S
Zn300       O316   2.022       .  S
Zn301       O304   1.929       .  S
Zn301       O306   1.983       .  S
Zn301       O308   1.979       .  S
Zn301       O312   1.949       .  S
Zn302       O304   1.952       .  S
Zn302       O307   1.983       .  S
Zn302       O310   2.018       .  S
Zn302       O313   1.978       .  S
Zn303       O304   1.971       .  S
Zn303       O311   2.076       .  S
Zn303       O314   2.072       .  S
Zn303       O315   2.020       .  S
O305        C317   1.279       .  A
O306        C318   1.267       .  A
O307        C319   1.269       .  A
O308        C317   1.266       .  A
O309        C319   1.276       .  A
O310        C318   1.271       .  A
O311        C320   1.280       .  A
O312        C321   1.263       .  A
O313        C320   1.265       .  A
O314        C321   1.280       .  A
O315        C322   1.272       .  A
O316        C322   1.273       .  A
C317        C848   1.441       .  S
C318        C827   1.427       .  S
C319        C832   1.434       .  S
C320        C880   1.444       .  S
C321        C834   1.432       .  S
C322        C825   1.436       .  S
Zn323       O327   1.970       .  S
Zn323       O328   2.029       .  S
Zn323       O332   2.084       .  S
Zn323       O339   2.077       .  S
Zn324       O327   1.955       .  S
Zn324       O329   2.044       .  S
Zn324       O331   2.040       .  S
Zn324       O335   2.075       .  S
Zn325       O327   1.946       .  S
Zn325       O330   1.976       .  S
Zn325       O333   1.973       .  S
Zn325       O336   2.014       .  S
Zn326       O327   1.932       .  S
Zn326       O334   1.985       .  S
Zn326       O337   1.972       .  S
Zn326       O338   1.944       .  S
O328        C340   1.274       .  A
O329        C341   1.278       .  A
O330        C342   1.265       .  A
O331        C340   1.275       .  A
O332        C342   1.280       .  A
O333        C341   1.268       .  A
O334        C343   1.266       .  A
O335        C344   1.280       .  A
O336        C343   1.270       .  A
O337        C344   1.265       .  A
O338        C345   1.263       .  A
O339        C345   1.282       .  A
C340        C819   1.445       .  S
C341        C823   1.429       .  S
C342        C876   1.446       .  S
C343        C828   1.427       .  S
C344        C852   1.440       .  S
C345        C821   1.432       .  S
Zn346       O350   1.961       .  S
Zn346       O351   2.070       .  S
Zn346       O355   2.052       .  S
Zn346       O362   2.070       .  S
Zn347      O1278   1.936   1_545  S
Zn347       O352   1.950       .  S
Zn347       O354   1.978       .  S
Zn347      O1286   1.996       .  S
Zn348      O1278   1.967   1_545  S
Zn348       O356   2.054       .  S
Zn348      O1281   2.011       .  S
Zn348      O1287   2.077   1_545  S
Zn349       O350   1.937       .  S
Zn349       O357   1.974       .  S
Zn349       O360   1.989       .  S
Zn349       O361   1.956       .  S
O350      Zn1275   1.936       .  S
O350      Zn1276   1.967       .  S
O351        C363   1.279       .  A
O352        C364   1.264       .  A
O353      Zn1276   2.011       .  S
O353        C365   1.271       .  A
O354       C1291   1.266   1_545  A
O355        C365   1.277       .  A
O356        C364   1.279       .  A
O357        C366   1.265       .  A
O358      Zn1275   1.996       .  S
O358        C367   1.268       .  A
O359      Zn1276   2.077       .  S
O359        C366   1.280       .  A
O360        C367   1.267       .  A
O361        C368   1.265       .  A
O362        C368   1.281       .  A
C363       O1282   1.266       .  A
C363        C862   1.440       .  S
C364        C824   1.428       .  S
C365        C836   1.443       .  S
C366        C868   1.443       .  S
C367        C817   1.422       .  S
C368        C822   1.432       .  S
Zn369       O373   1.963       .  S
Zn369       O374   2.057       .  S
Zn369       O378   2.052       .  S
Zn369       O385   2.037       .  S
Zn370       O373   1.943       .  S
Zn370       O375   2.038       .  S
Zn370       O377   1.999       .  S
Zn370       O381   1.977       .  S
Zn371       O373   1.945       .  S
Zn371       O376   1.974       .  S
Zn371       O379   2.022       .  S
Zn371       O382   1.987       .  S
Zn372       O373   1.970       .  S
Zn372       O380   2.070       .  S
Zn372       O383   2.046       .  S
Zn372       O384   2.009       .  S
O374        C386   1.278       .  A
O375        C387   1.274       .  A
O376        C388   1.268       .  A
O377        C386   1.270       .  A
O378        C388   1.278       .  A
O379        C387   1.272       .  A
O380        C389   1.279       .  A
O381        C390   1.268       .  A
O382        C389   1.267       .  A
O383        C390   1.279       .  A
O384        C391   1.269       .  A
O385        C391   1.273       .  A
C386        C813   1.442       .  S
C387        C884   1.442       .  S
C388       C1735   1.433   1_545  S
C389        C811   1.445       .  S
C390        C810   1.433       .  S
C391        C816   1.441       .  S
Zn392       O396   1.936       .  S
Zn392       O397   1.979       .  S
Zn392       O401   1.960       .  S
Zn392       O408   2.008       .  S
Zn393       O396   1.965       .  S
Zn393       O398   2.028       .  S
Zn393       O400   2.061       .  S
Zn393       O404   2.058       .  S
Zn394       O396   1.970       .  S
Zn394       O399   2.062       .  S
Zn394       O402   2.005       .  S
Zn394       O405   2.082       .  S
Zn395       O396   1.938       .  S
Zn395       O403   1.978       .  S
Zn395       O406   1.965       .  S
Zn395       O407   2.000       .  S
O397        C409   1.266       .  A
O398        C410   1.274       .  A
O399        C411   1.280       .  A
O400        C409   1.278       .  A
O401        C411   1.265       .  A
O402        C410   1.270       .  A
O403        C412   1.266       .  A
O404        C413   1.279       .  A
O405        C412   1.281       .  A
O406        C413   1.266       .  A
O407        C414   1.269       .  A
O408        C414   1.270       .  A
C409        C803   1.438       .  S
C410        C806   1.435       .  S
C411        C808   1.433       .  S
C412        C802   1.445       .  S
C413        C809   1.432       .  S
C414        C878   1.429       .  S
Zn415       O419   1.939       .  S
Zn415       O420   1.997       .  S
Zn415       O424   1.976       .  S
Zn415       O431   1.963       .  S
Zn416       O419   1.938       .  S
Zn416       O421   1.962       .  S
Zn416       O423   2.017       .  S
Zn416       O427   1.982       .  S
Zn417       O419   1.971       .  S
Zn417       O422   2.086       .  S
Zn417       O425   2.065       .  S
Zn417       O428   2.017       .  S
Zn418       O419   1.965       .  S
Zn418       O426   2.039       .  S
Zn418       O429   2.064       .  S
Zn418       O430   2.061       .  S
O420        C432   1.268       .  A
O421        C433   1.265       .  A
O422        C434   1.282       .  A
O423        C432   1.270       .  A
O424        C434   1.265       .  A
O425        C433   1.280       .  A
O426        C435   1.275       .  A
O427        C436   1.267       .  A
O428        C435   1.271       .  A
O429        C436   1.278       .  A
O430        C437   1.279       .  A
O431        C437   1.266       .  A
C432        C870   1.431       .  S
C433        C796   1.434       .  S
C434        C797   1.445       .  S
C435        C815   1.441       .  S
C436        C799   1.439       .  S
C437        C794   1.432       .  S
Zn438       O442   1.943       .  S
Zn438       O443   1.988       .  S
Zn438       O447   1.977       .  S
Zn438       O454   2.024       .  S
Zn439       O442   1.968       .  S
Zn439       O444   1.998       .  S
Zn439       O446   2.063       .  S
Zn439       O450   2.044       .  S
Zn440       O442   1.962       .  S
Zn440       O445   2.053       .  S
Zn440       O448   2.028       .  S
Zn440       O451   2.054       .  S
Zn441       O442   1.940       .  S
Zn441       O449   1.997       .  S
Zn441       O452   1.977       .  S
Zn441       O453   2.038       .  S
O443        C455   1.267       .  A
O444        C456   1.268       .  A
O445        C457   1.278       .  A
O446        C455   1.278       .  A
O447        C457   1.269       .  A
O448        C456   1.272       .  A
O449        C458   1.270       .  A
O450        C459   1.278       .  A
O451        C458   1.278       .  A
O452        C459   1.268       .  A
O453        C460   1.274       .  A
O454        C460   1.273       .  A
C455        C789   1.443       .  S
C456        C805   1.435       .  S
C457       C1723   1.435       .  S
C458        C791   1.441       .  S
C459        C793   1.433       .  S
C460        C865   1.443       .  S
Zn461       O465   1.966       .  S
Zn461       O466   2.047       .  S
Zn461       O470   2.067       .  S
Zn461       O477   2.062       .  S
Zn462       O465   1.970       .  S
Zn462       O467   2.052       .  S
Zn462       O469   2.006       .  S
Zn462       O473   2.072       .  S
Zn463       O465   1.939       .  S
Zn463       O468   1.987       .  S
Zn463       O471   1.964       .  S
Zn463       O474   2.021       .  S
Zn464       O465   1.941       .  S
Zn464       O472   2.006       .  S
Zn464       O475   1.979       .  S
Zn464       O476   1.967       .  S
O466        C478   1.276       .  A
O467        C479   1.278       .  A
O468        C480   1.268       .  A
O469        C478   1.270       .  A
O470        C480   1.279       .  A
O471        C479   1.266       .  A
O472        C481   1.270       .  A
O473        C482   1.279       .  A
O474        C481   1.271       .  A
O475        C482   1.266       .  A
O476        C483   1.267       .  A
O477        C483   1.280       .  A
C478        C788   1.441       .  S
C479        C783   1.431       .  S
C480        C814   1.441       .  S
C481        C918   1.434       .  S
C482        C786   1.442       .  S
C483        C781   1.434       .  S
Zn484       O488   1.967       .  S
Zn484       O489   2.013       .  S
Zn484       O493   2.078       .  S
Zn484       O500   2.054       .  S
Zn485       O488   1.961       .  S
Zn485       O490   2.045       .  S
Zn485       O492   2.020       .  S
Zn485       O496   2.053       .  S
Zn486       O488   1.944       .  S
Zn486       O491   1.992       .  S
Zn486       O494   1.975       .  S
Zn486       O497   2.012       .  S
Zn487       O488   1.939       .  S
Zn487       O495   2.023       .  S
Zn487       O498   1.990       .  S
Zn487       O499   1.972       .  S
O489        C501   1.270       .  A
O490        C502   1.277       .  A
O491        C503   1.267       .  A
O492        C501   1.272       .  A
O493        C503   1.281       .  A
O494        C502   1.268       .  A
O495        C504   1.272       .  A
O496        C505   1.277       .  A
O497        C504   1.271       .  A
O498        C505   1.268       .  A
O499        C506   1.267       .  A
O500        C506   1.279       .  A
C501        C780   1.436       .  S
C502       C1712   1.432       .  S
C503        C777   1.448       .  S
C504        C910   1.435       .  S
C505        C804   1.439       .  S
C506        C782   1.434       .  S
Zn507       O511   1.943       .  S
Zn507       O512   2.034       .  S
Zn507       O516   1.997       .  S
Zn507       O523   1.973       .  S
Zn508       O511   1.944       .  S
Zn508       O513   1.974       .  S
Zn508       O515   2.014       .  S
Zn508       O519   1.984       .  S
Zn509       O511   1.962       .  S
Zn509       O514   2.052       .  S
Zn509       O517   2.053       .  S
Zn509       O520   2.031       .  S
Zn510       O511   1.972       .  S
Zn510       O518   2.020       .  S
Zn510       O521   2.082       .  S
Zn510       O522   2.050       .  S
O512        C524   1.273       .  A
O513        C525   1.268       .  A
O514        C526   1.277       .  A
O515        C524   1.271       .  A
O516        C526   1.269       .  A
O517        C525   1.278       .  A
O518        C527   1.271       .  A
O519        C528   1.266       .  A
O520        C527   1.273       .  A
O521        C528   1.281       .  A
O522        C529   1.279       .  A
O523        C529   1.267       .  A
C524        C899   1.439       .  S
C525       C1699   1.433   1_545  S
C526        C800   1.440       .  S
C527        C787   1.441       .  S
C528        C775   1.446       .  S
C529        C774   1.434       .  S
Zn530       O534   1.968       .  S
Zn530       O535   2.056       .  S
Zn530       O539   1.999       .  S
Zn530       O546   2.073       .  S
Zn531       O534   1.936       .  S
Zn531       O536   1.980       .  S
Zn531       O538   1.966       .  S
Zn531       O542   2.014       .  S
Zn532       O534   1.966       .  S
Zn532       O537   2.039       .  S
Zn532       O540   2.067       .  S
Zn532       O543   2.063       .  S
Zn533       O534   1.938       .  S
Zn533       O541   1.964       .  S
Zn533       O544   2.000       .  S
Zn533       O545   1.977       .  S
O535        C547   1.279       .  A
O536        C548   1.267       .  A
O537        C549   1.275       .  A
O538        C547   1.266       .  A
O539        C549   1.269       .  A
O540        C548   1.279       .  A
O541        C550   1.266       .  A
O542        C551   1.271       .  A
O543        C550   1.279       .  A
O544        C551   1.269       .  A
O545        C552   1.265       .  A
O546        C552   1.280       .  A
C547        C772   1.433       .  S
C548        C792   1.440       .  S
C549        C779   1.436       .  S
C550        C773   1.433       .  S
C551        C893   1.431       .  S
C552        C769   1.442       .  S
Zn553       O557   1.959       .  S
Zn553       O558   2.024       .  S
Zn553       O562   2.043       .  S
Zn553       O569   2.074       .  S
Zn554       O557   1.974       .  S
Zn554       O559   2.080       .  S
Zn554       O561   2.029       .  S
Zn554      O1493   2.075   1_545  S
Zn555       O557   1.952       .  S
Zn555       O560   1.986       .  S
Zn555       O563   1.985       .  S
Zn555       O566   2.024       .  S
Zn556      O1485   1.931       .  S
Zn556       O564   1.987       .  S
Zn556       O567   1.944       .  S
Zn556       O568   1.975       .  S
O557      Zn1484   1.931   1_545  S
O558        C570   1.273       .  A
O559        C571   1.281       .  A
O560        C572   1.270       .  A
O561        C570   1.274       .  A
O562        C572   1.277       .  A
O563        C571   1.266       .  A
O564       C1501   1.267       .  A
O565      Zn1482   2.075       .  S
O565        C574   1.281       .  A
O566        C573   1.272       .  A
O567        C574   1.263       .  A
O568       C1503   1.265       .  A
O569        C575   1.279       .  A
C570        C855   1.439       .  S
C571        C776   1.446       .  S
C572        C764   1.434       .  S
C573       O1492   1.267   1_545  A
C573        C767   1.430       .  S
C574        C761   1.432       .  S
C575       O1496   1.265   1_545  A
C575        C765   1.441       .  S
Zn576       O580   1.927       .  S
Zn576       O581   1.953       .  S
Zn576       O585   1.976       .  S
Zn576       O592   1.996       .  S
Zn577       O580   1.970       .  S
Zn577       O582   2.022       .  S
Zn577       O584   2.067       .  S
Zn577       O588   2.069       .  S
Zn578       O580   1.951       .  S
Zn578       O583   2.048       .  S
Zn578       O586   2.002       .  S
Zn578       O589   2.024       .  S
Zn579       O580   1.952       .  S
Zn579       O587   2.005       .  S
Zn579       O590   1.985       .  S
Zn579       O591   2.043       .  S
O581        C593   1.264       .  A
O582        C594   1.271       .  A
O583        C595   1.276       .  A
O584        C593   1.280       .  A
O585        C595   1.266       .  A
O586        C594   1.270       .  A
O587        C596   1.273       .  A
O588        C597   1.280       .  A
O589        C596   1.274       .  A
O590        C597   1.267       .  A
O591        C598   1.275       .  A
O592        C598   1.268       .  A
C593        C763   1.432       .  S
C594        C849   1.433       .  S
C595        C757   1.434       .  S
C596        C762   1.435       .  S
C597        C770   1.443       .  S
C598        C760   1.437       .  S
Zn599       O603   1.932       .  S
Zn599       O604   1.960       .  S
Zn599       O608   2.007       .  S
Zn599       O615   1.978       .  S
Zn600       O603   1.961       .  S
Zn600       O605   2.067       .  S
Zn600       O607   2.048       .  S
Zn600       O611   2.001       .  S
Zn601       O603   1.936       .  S
Zn601       O606   1.997       .  S
Zn601       O609   1.983       .  S
Zn601       O612   1.964       .  S
Zn602       O603   1.958       .  S
Zn602       O610   2.062       .  S
Zn602       O613   2.039       .  S
Zn602       O614   2.062       .  S
O604        C616   1.265       .  A
O605        C617   1.278       .  A
O606        C618   1.269       .  A
O607        C616   1.278       .  A
O608        C618   1.270       .  A
O609        C617   1.266       .  A
O610        C619   1.280       .  A
O611        C620   1.269       .  A
O612        C619   1.266       .  A
O613        C620   1.275       .  A
O614        C621   1.278       .  A
O615        C621   1.266       .  A
C616        C751   1.428       .  S
C617        C785   1.443       .  S
C618        C841   1.427       .  S
C619        C753   1.433       .  S
C620        C759   1.437       .  S
C621        C755   1.437       .  S
Zn622       O626   1.955       .  S
Zn622       O627   1.981       .  S
Zn622       O631   1.988       .  S
Zn622       O638   2.025       .  S
Zn623       O626   1.959       .  S
Zn623       O628   2.032       .  S
Zn623       O630   2.035       .  S
Zn623       O634   2.071       .  S
Zn624      O1554   1.973   1_545  S
Zn624       O635   2.074       .  S
Zn624      O1557   2.081   1_545  S
Zn624      O1560   2.032   1_545  S
Zn625      O1554   1.936   1_545  S
Zn625       O633   1.945       .  S
Zn625       O636   1.982       .  S
Zn625       O637   1.988       .  S
O626      Zn1552   1.973       .  S
O626      Zn1553   1.936       .  S
O627        C639   1.269       .  A
O628        C640   1.274       .  A
O629      Zn1552   2.081       .  S
O629        C641   1.280       .  A
O630        C639   1.276       .  A
O631        C641   1.267       .  A
O632      Zn1552   2.032       .  S
O632        C640   1.273       .  A
O633        C642   1.263       .  A
O634        C643   1.279       .  A
O635        C642   1.282       .  A
O636       C1571   1.266   1_545  A
O637       C1572   1.267   1_545  A
O638        C644   1.272       .  A
C639        C752   1.430       .  S
C640        C837   1.443       .  S
C641        C778   1.448       .  S
C642        C754   1.431       .  S
C643       O1564   1.266       .  A
C643        C749   1.442       .  S
C644       O1565   1.267       .  A
C644        C768   1.430       .  S
Zn645      O1577   1.940       .  S
Zn645       O650   1.961       .  S
Zn645       O661   1.989       .  S
Zn645      O1582   2.021       .  S
Zn646      O1577   1.972       .  S
Zn646       O653   2.054       .  S
Zn646      O1579   2.081       .  S
Zn646      O1585   2.016       .  S
Zn647       O649   1.941       .  S
Zn647       O652   2.008       .  S
Zn647       O655   1.975       .  S
Zn647       O658   1.967       .  S
Zn648       O649   1.965       .  S
Zn648       O656   2.065       .  S
Zn648       O659   2.046       .  S
Zn648       O660   2.066       .  S
O649      Zn1573   1.940   1_545  S
O649      Zn1574   1.972   1_545  S
O650        C662   1.266       .  A
O651      Zn1574   2.081   1_545  S
O651        C663   1.281       .  A
O652        C664   1.270       .  A
O653        C662   1.279       .  A
O654      Zn1573   2.021       .  S
O654        C664   1.271   1_565  A
O655        C663   1.265       .  A
O656        C665   1.280       .  A
O657      Zn1574   2.016       .  S
O657        C666   1.271   1_565  A
O658        C665   1.267       .  A
O659        C666   1.275       .  A
O660        C667   1.279       .  A
O661       C1595   1.268       .  A
C662        C744   1.430       .  S
C663        C812   1.444       .  S
C664        C830   1.435       .  S
C665        C746   1.435       .  S
C666        C748   1.443       .  S
C667       O1589   1.268   1_545  A
C667        C750   1.442       .  S
Zn668       O672   1.942       .  S
Zn668       O673   1.973       .  S
Zn668       O677   2.014       .  S
Zn668       O684   1.989       .  S
Zn669       O672   1.961       .  S
Zn669       O674   2.050       .  S
Zn669       O676   2.043       .  S
Zn669       O680   2.015       .  S
Zn670       O672   1.938       .  S
Zn670       O675   2.026       .  S
Zn670       O678   1.989       .  S
Zn670       O681   1.975       .  S
Zn671       O672   1.966       .  S
Zn671       O679   2.055       .  S
Zn671       O682   1.999       .  S
Zn671       O683   2.070       .  S
O673        C685   1.267       .  A
O674        C686   1.277       .  A
O675        C687   1.273       .  A
O676        C685   1.276       .  A
O677        C687   1.272       .  A
O678        C686   1.268       .  A
O679        C688   1.279       .  A
O680        C689   1.271       .  A
O681        C688   1.267       .  A
O682        C689   1.268       .  A
O683        C690   1.279       .  A
O684        C690   1.268       .  A
C685        C743   1.431       .  S
C686        C756   1.438       .  S
C687        C826   1.436       .  S
C688        C745   1.435       .  S
C689        C741   1.430       .  S
C690        C801   1.446       .  S
Zn691       O695   1.972       .  S
Zn691       O696   2.084       .  S
Zn691       O700   2.046       .  S
Zn691       O707   2.079       .  S
Zn692       O695   1.950       .  S
Zn692       O697   1.976       .  S
Zn692       O699   1.976       .  S
Zn692       O703   2.015       .  S
Zn693       O695   1.957       .  S
Zn693       O698   2.025       .  S
Zn693       O701   2.035       .  S
Zn693       O704   2.055       .  S
Zn694       O695   1.934       .  S
Zn694       O702   1.969       .  S
Zn694       O705   1.996       .  S
Zn694       O706   1.941       .  S
O696        C708   1.281       .  A
O697        C709   1.268       .  A
O698        C710   1.272       .  A
O699        C708   1.266       .  A
O700        C710   1.275       .  A
O701        C709   1.276       .  A
O702        C711   1.265       .  A
O703        C712   1.270       .  A
O704        C711   1.277       .  A
O705        C712   1.267       .  A
O706        C713   1.262       .  A
O707        C713   1.282       .  A
C708        C798   1.445       .  S
C709        C740   1.429       .  S
C710        C820   1.445       .  S
C711        C758   1.434       .  S
C712        C742   1.430       .  S
C713        C737   1.431       .  S
Zn714      O1646   1.935   1_545  S
Zn714       O723   1.975       .  S
Zn714       O730   1.952       .  S
Zn714      O1647   1.997       .  S
Zn715       O718   1.936       .  S
Zn715       O720   1.955       .  S
Zn715       O722   1.987       .  S
Zn715       O726   1.966       .  S
Zn716       O718   1.962       .  S
Zn716       O721   2.074       .  S
Zn716       O724   2.069       .  S
Zn716       O727   2.053       .  S
Zn717      O1646   1.968   1_545  S
Zn717       O729   2.055       .  S
Zn717      O1653   2.009       .  S
Zn717      O1656   2.080   1_545  S
O718      Zn1642   1.935       .  S
O718      Zn1645   1.968       .  S
O719      Zn1642   1.997       .  S
O719        C731   1.268       .  A
O720        C732   1.264       .  A
O721        C733   1.280       .  A
O722        C731   1.267       .  A
O723       C1661   1.266   1_545  A
O724        C732   1.281       .  A
O725      Zn1645   2.009       .  S
O725        C734   1.271       .  A
O726        C735   1.264       .  A
O727        C734   1.277       .  A
O728      Zn1645   2.080       .  S
O728        C735   1.280       .  A
O729        C736   1.279       .  A
O730        C736   1.264       .  A
C731        C818   1.422       .  S
C732        C738   1.433       .  S
C733       O1651   1.266       .  A
C733        C766   1.440       .  S
C734        C747   1.443       .  S
C735        C790   1.442       .  S
C736        C739   1.428       .  S
C737        C738   1.206       .  T
C739        C740   1.203       .  T
C741        C742   1.203       .  T
C743        C744   1.204       .  T
C745        C746   1.207       .  T
C747       C1676   1.211       .  T
C748       C1675   1.211   1_545  T
C749       C1678   1.210   1_655  T
C750       C1677   1.210   1_445  T
C751        C752   1.203       .  T
C753        C754   1.205       .  T
C755        C756   1.208   1_655  T
C757        C758   1.206   1_655  T
C759        C760   1.207       .  T
C761        C762   1.206       .  T
C763        C764   1.206       .  T
C765       C1694   1.210   1_645  T
C766       C1693   1.210   1_455  T
C767       C1696   1.203   1_545  T
C768       C1695   1.203       .  T
C769        C770   1.211       .  T
C771       C1453   1.433       .  S
C771        C772   1.206       .  T
C773        C774   1.206       .  T
C775        C776   1.214       .  T
C777        C778   1.215       .  T
C779        C780   1.207       .  T
C781        C782   1.206       .  T
C783        C784   1.205       .  T
C784       C1430   1.432   1_545  S
C785        C786   1.211       .  T
C787        C788   1.210       .  T
C789        C790   1.211       .  T
C791        C792   1.210       .  T
C793        C794   1.206       .  T
C795       C1385   1.435   1_545  S
C795        C796   1.207       .  T
C797        C798   1.213       .  T
C799        C800   1.209       .  T
C801        C802   1.213       .  T
C803        C804   1.209       .  T
C805        C806   1.206       .  T
C807       C1316   1.433       .  S
C807        C808   1.206       .  T
C809        C810   1.205       .  T
C811        C812   1.212       .  T
C813        C814   1.210       .  T
C815        C816   1.209       .  T
C817        C818   1.198       .  T
C819        C820   1.212       .  T
C821        C822   1.206       .  T
C823        C824   1.203       .  T
C825        C826   1.207   1_556  T
C827        C828   1.201       .  T
C829        C830   1.206   1_556  T
C831        C832   1.206       .  T
C833        C834   1.206       .  T
C835       C1764   1.211   1_545  T
C836       C1763   1.211       .  T
C837        C838   1.211   1_554  T
C839       C1768   1.209   1_655  T
C840       C1767   1.209   1_445  T
C841        C842   1.201   1_554  T
C843        C844   1.203       .  T
C845        C846   1.206       .  T
C847        C848   1.210   1_655  T
C849        C850   1.204       .  T
C851        C852   1.210   1_655  T
C853        C854   1.215       .  T
C855        C856   1.208       .  T
C857        C858   1.208       .  T
C859        C860   1.203       .  T
C861       C1790   1.209   1_645  T
C862       C1789   1.209   1_455  T
C863       C1792   1.202       .  T
C864       C1791   1.202   1_545  T
C865        C866   1.210       .  T
C867        C868   1.211       .  T
C869        C870   1.203       .  T
C871        C872   1.205       .  T
C873        C874   1.207       .  T
C874       C1108   1.436   1_545  S
C875        C876   1.213       .  T
C877        C878   1.202   1_556  T
C879        C880   1.212       .  T
C881        C882   1.208       .  T
C883        C884   1.210   1_556  T
C885        C886   1.205       .  T
C886       C1040   1.433       .  S
C887        C888   1.205       .  T
C889        C890   1.213       .  T
C891        C892   1.203       .  T
C893        C894   1.203       .  T
C895        C896   1.209       .  T
C897        C898   1.208       .  T
C899        C900   1.208       .  T
C901        C994   1.430       .  S
C901        C902   1.204       .  T
C903        C904   1.207       .  T
C905        C906   1.217       .  T
C907        C908   1.208       .  T
C909        C910   1.206   1_556  T
C911        C912   1.215       .  T
C913        C914   1.209       .  T
C915        C916   1.212       .  T
C917        C918   1.205   1_556  T
C919        C920   1.206       .  T
C921        C970   1.433   1_545  S
C921        C922   1.206       .  T
C923        C924   1.212       .  T
C925        C926   1.208       .  T
C927        C928   1.204       .  T
Zn929       O933   1.957       .  S
Zn929       O934   2.052       .  S
Zn929       O938   2.059       .  S
Zn929       O945   2.030       .  S
Zn930       O933   1.939       .  S
Zn930       O935   2.015       .  S
Zn930       O937   1.979       .  S
Zn930       O941   1.990       .  S
Zn931       O933   1.934       .  S
Zn931       O936   1.983       .  S
Zn931       O939   2.017       .  S
Zn931       O942   1.973       .  S
Zn932       O933   1.965       .  S
Zn932       O940   2.052       .  S
Zn932       O943   2.066       .  S
Zn932       O944   1.990       .  S
O934        C946   1.278       .  A
O935        C947   1.272       .  A
O936        C948   1.267       .  A
O937        C946   1.269       .  A
O938        C948   1.278       .  A
O939        C947   1.272       .  A
O940        C949   1.279       .  A
O941        C950   1.268       .  A
O942        C949   1.267       .  A
O943        C950   1.279       .  A
O944        C951   1.267       .  A
O945        C951   1.273       .  A
C946       C1848   1.435       .  S
C947       C1845   1.434       .  S
C948       C1853   1.438       .  S
C949       C1850   1.434       .  S
C950       C1852   1.444       .  S
C951       C1856   1.432       .  S
Zn952       O956   1.973       .  S
Zn952       O957   2.090       .  S
Zn952       O961   2.031       .  S
Zn952       O968   2.063       .  S
Zn953       O956   1.945       .  S
Zn953       O958   1.965       .  S
Zn953       O960   1.984       .  S
Zn953       O964   2.010       .  S
Zn954       O956   1.970       .  S
Zn954       O959   2.040       .  S
Zn954       O962   2.063       .  S
Zn954       O965   2.065       .  S
Zn955       O956   1.941       .  S
Zn955       O963   1.978       .  S
Zn955       O966   2.018       .  S
Zn955       O967   1.961       .  S
O957        C969   1.282       .  A
O958        C970   1.267       .  A
O959        C971   1.275       .  A
O960        C969   1.266       .  A
O961        C971   1.273       .  A
O962        C970   1.279       .  A
O963        C972   1.266       .  A
O964        C973   1.270       .  A
O965        C972   1.278       .  A
O966        C973   1.270       .  A
O967        C974   1.265       .  A
O968        C974   1.280       .  A
C969       C1839   1.448       .  S
C971       C1844   1.445       .  S
C972       C1841   1.439       .  S
C973       C1837   1.435       .  S
C974       C1847   1.433       .  S
Zn975       O979   1.954       .  S
Zn975       O980   1.996       .  S
Zn975       O984   1.987       .  S
Zn975       O991   2.033       .  S
Zn976       O979   1.973       .  S
Zn976       O981   2.034       .  S
Zn976       O983   2.089       .  S
Zn976       O987   2.080       .  S
Zn977       O979   1.955       .  S
Zn977       O982   2.029       .  S
Zn977       O985   2.014       .  S
Zn977       O988   2.059       .  S
Zn978       O979   1.934       .  S
Zn978       O986   1.978       .  S
Zn978       O989   1.944       .  S
Zn978       O990   1.989       .  S
O980        C992   1.268       .  A
O981        C993   1.274       .  A
O982        C994   1.276       .  A
O983        C992   1.281       .  A
O984        C994   1.270       .  A
O985        C993   1.271       .  A
O986        C995   1.266       .  A
O987        C996   1.282       .  A
O988        C995   1.277       .  A
O989        C996   1.263       .  A
O990        C997   1.267       .  A
O991        C997   1.274       .  A
C992       C1833   1.452       .  S
C993       C1828   1.439       .  S
C995       C1836   1.438       .  S
C996       C1831   1.433       .  S
C997       C1855   1.432       .  S
Zn998      O1002   1.962       .  S
Zn998      O1003   2.064       .  S
Zn998      O1007   2.055       .  S
Zn998      O1014   2.068       .  S
Zn999      O1002   1.938       .  S
Zn999      O1004   1.962       .  S
Zn999      O1006   1.978       .  S
Zn999      O1010   2.011       .  S
Zn1000     O1002   1.965       .  S
Zn1000     O1005   2.009       .  S
Zn1000     O1008   2.047       .  S
Zn1000     O1011   2.061       .  S
Zn1001     O1002   1.941       .  S
Zn1001     O1009   1.978       .  S
Zn1001     O1012   2.005       .  S
Zn1001     O1013   1.963       .  S
O1003      C1015   1.279       .  A
O1004      C1016   1.266       .  A
O1005      C1017   1.270       .  A
O1006      C1015   1.267       .  A
O1007      C1017   1.276       .  A
O1008      C1016   1.278       .  A
O1009      C1018   1.266       .  A
O1010      C1019   1.270       .  A
O1011      C1018   1.278       .  A
O1012      C1019   1.269       .  A
O1013      C1020   1.266       .  A
O1014      C1020   1.281       .  A
C1015      C1825   1.438       .  S
C1016      C1830   1.429       .  S
C1017      C1843   1.445       .  S
C1018      C1823   1.439       .  S
C1019      C1822   1.431       .  S
C1020      C1832   1.434       .  S
Zn1021     O1025   1.953       .  S
Zn1021     O1026   1.983       .  S
Zn1021     O1030   1.989       .  S
Zn1021     O1037   2.028       .  S
Zn1022     O1025   1.973       .  S
Zn1022     O1027   2.032       .  S
Zn1022     O1029   2.080       .  S
Zn1022     O1033   2.071       .  S
Zn1023     O1025   1.955       .  S
Zn1023     O1028   2.036       .  S
Zn1023     O1031   2.027       .  S
Zn1023     O1034   2.062       .  S
Zn1024     O1025   1.933       .  S
Zn1024     O1032   1.978       .  S
Zn1024     O1035   1.942       .  S
Zn1024     O1036   1.987       .  S
O1026      C1038   1.266       .  A
O1027      C1039   1.273       .  A
O1028      C1040   1.276       .  A
O1029      C1038   1.280       .  A
O1030      C1040   1.270       .  A
O1031      C1039   1.273       .  A
O1032      C1041   1.266       .  A
O1033      C1042   1.281       .  A
O1034      C1041   1.278       .  A
O1035      C1042   1.262       .  A
O1036      C1043   1.267       .  A
O1037      C1043   1.272       .  A
C1038      C1818   1.446       .  S
C1039      C1811   1.442       .  S
C1041      C1854   1.438       .  S
C1042      C1815   1.430       .  S
C1043      C1819   1.431       .  S
Zn1044     O1048   1.940       .  S
Zn1044     O1049   1.994       .  S
Zn1044     O1053   1.965       .  S
Zn1044     O1060   1.978       .  S
Zn1045     O1048   1.937       .  S
Zn1045     O1050   1.987       .  S
Zn1045     O1052   2.016       .  S
Zn1045     O1056   1.965       .  S
Zn1046     O1048   1.959       .  S
Zn1046     O1051   2.057       .  S
Zn1046     O1054   2.057       .  S
Zn1046     O1057   2.032       .  S
Zn1047     O1048   1.964       .  S
Zn1047     O1055   2.012       .  S
Zn1047     O1058   2.054       .  S
Zn1047     O1059   2.076       .  S
O1049      C1061   1.269       .  A
O1050      C1062   1.268       .  A
O1051      C1063   1.279       .  A
O1052      C1061   1.271       .  A
O1053      C1063   1.266       .  A
O1054      C1062   1.277       .  A
O1055      C1064   1.270       .  A
O1056      C1065   1.266       .  A
O1057      C1064   1.274       .  A
O1058      C1065   1.279       .  A
O1059      C1066   1.280       .  A
O1060      C1066   1.265       .  A
C1061      C1805   1.429       .  S
C1062      C1842   1.439       .  S
C1063      C1816   1.432       .  S
C1064      C1809   1.439       .  S
C1065      C1813   1.432       .  S
C1066      C1807   1.444       .  S
Zn1067     O1071   1.954       .  S
Zn1067     O1072   2.061       .  S
Zn1067     O1076   2.036       .  S
Zn1067     O1083   2.009       .  S
Zn1068     O1071   1.928       .  S
Zn1068     O1073   1.986       .  S
Zn1068     O1075   1.978       .  S
Zn1068     O1079   1.948       .  S
Zn1069     O1071   1.947       .  S
Zn1069     O1074   1.989       .  S
Zn1069     O1077   2.028       .  S
Zn1069     O1080   1.985       .  S
Zn1070     O1071   1.971       .  S
Zn1070     O1078   2.078       .  S
Zn1070     O1081   2.073       .  S
Zn1070     O1082   2.015       .  S
O1072      C1084   1.277       .  A
O1073      C1085   1.267       .  A
O1074      C1086   1.271       .  A
O1075      C1084   1.266       .  A
O1076      C1086   1.276       .  A
O1077      C1085   1.273       .  A
O1078      C1087   1.280       .  A
O1079      C1088   1.263       .  A
O1080      C1087   1.267       .  A
O1081      C1088   1.281       .  A
O1082      C1089   1.272       .  A
O1083      C1089   1.271       .  A
C1084      C1835   1.438       .  S
C1085      C1820   1.430       .  S
C1086      C1799   1.433       .  S
C1087      C1803   1.446       .  S
C1088      C1801   1.433       .  S
C1089      C1797   1.431       .  S
Zn1090     O1094   1.972       .  S
Zn1090     O1095   2.034       .  S
Zn1090     O1099   2.070       .  S
Zn1090     O1106   2.064       .  S
Zn1091     O1094   1.957       .  S
Zn1091     O1096   2.032       .  S
Zn1091     O1098   2.025       .  S
Zn1091     O1102   2.060       .  S
Zn1092     O1094   1.957       .  S
Zn1092     O1097   1.983       .  S
Zn1092     O1100   2.000       .  S
Zn1092     O1103   2.040       .  S
Zn1093     O1094   1.934       .  S
Zn1093     O1101   2.004       .  S
Zn1093     O1104   1.980       .  S
Zn1093     O1105   1.953       .  S
O1095      C1107   1.273       .  A
O1096      C1108   1.275       .  A
O1097      C1109   1.267       .  A
O1098      C1107   1.272       .  A
O1099      C1109   1.280       .  A
O1100      C1108   1.272       .  A
O1101      C1110   1.269       .  A
O1102      C1111   1.278       .  A
O1103      C1110   1.274       .  A
O1104      C1111   1.267       .  A
O1105      C1112   1.264       .  A
O1106      C1112   1.280       .  A
C1107      C1794   1.443       .  S
C1109      C1795   1.443       .  S
C1110      C1810   1.439       .  S
C1111      C1826   1.438       .  S
C1112      C1800   1.431       .  S
Zn1113     O1117   1.952       .  S
Zn1113     O1118   1.989       .  S
Zn1113     O1122   1.980       .  S
Zn1113     O1129   2.021       .  S
Zn1114     O1117   1.973       .  S
Zn1114     O1119   2.030       .  S
Zn1114     O1121   2.093       .  S
Zn1115     O1117   1.957       .  S
Zn1115     O1120   2.033       .  S
Zn1115     O1123   2.023       .  S
Zn1115     O1126   2.069       .  S
Zn1116     O1124   1.976       .  S
Zn1116     O1127   1.945       .  S
Zn1116     O1128   1.983       .  S
O1118      C1130   1.267       .  A
O1119      C1131   1.273       .  A
O1120      C1132   1.276       .  A
O1121      C1130   1.282       .  A
O1122      C1132   1.269       .  A
O1123      C1131   1.273       .  A
O1125      C1134   1.283       .  A
O1126      C1133   1.278       .  A
O1127      C1134   1.263       .  A
O1129      C1135   1.272       .  A
C1130      C1834   1.452       .  S
C1131      C1784   1.439       .  S
C1132      C1787   1.429       .  S
C1133      C1789   1.440       .  S
C1134      C1785   1.435       .  S
C1135      C1792   1.428       .  S
Zn1136     O1140   1.940       .  S
Zn1136     O1141   1.960       .  S
Zn1136     O1145   1.970       .  S
Zn1136     O1152   2.002       .  S
Zn1137     O1140   1.964       .  S
Zn1137     O1142   2.066       .  S
Zn1137     O1144   2.076       .  S
Zn1137     O1148   2.072       .  S
Zn1138     O1140   1.969       .  S
Zn1138     O1143   2.069       .  S
Zn1138     O1146   2.016       .  S
Zn1138     O1149   2.048       .  S
Zn1139     O1140   1.939       .  S
Zn1139     O1147   1.960       .  S
Zn1139     O1150   1.981       .  S
Zn1139     O1151   2.018       .  S
O1141      C1153   1.265       .  A
O1142      C1154   1.278       .  A
O1143      C1155   1.279       .  A
O1144      C1153   1.282       .  A
O1145      C1155   1.265       .  A
O1146      C1154   1.271       .  A
O1147      C1156   1.265       .  A
O1148      C1157   1.280       .  A
O1149      C1156   1.278       .  A
O1150      C1157   1.267       .  A
O1151      C1158   1.270       .  A
O1152      C1158   1.268       .  A
C1153      C1786   1.436       .  S
C1154      C1781   1.449       .  S
C1155      C1824   1.439       .  S
C1156      C1788   1.428       .  S
C1157      C1779   1.441       .  S
C1158      C1778   1.433       .  S
Zn1159     O1163   1.938       .  S
Zn1159     O1164   1.995       .  S
Zn1159     O1168   1.955       .  S
Zn1159     O1175   1.970       .  S
Zn1160     O1163   1.935       .  S
Zn1160     O1165   1.970       .  S
Zn1160     O1167   2.003       .  S
Zn1160     O1171   1.949       .  S
Zn1161     O1163   1.964       .  S
Zn1161     O1166   2.077       .  S
Zn1161     O1169   2.076       .  S
Zn1161     O1172   2.062       .  S
Zn1162     O1163   1.967       .  S
Zn1162     O1170   2.024       .  S
Zn1162     O1173   2.058       .  S
Zn1162     O1174   2.084       .  S
O1164      C1176   1.268       .  A
O1165      C1177   1.265       .  A
O1166      C1178   1.283       .  A
O1167      C1176   1.268       .  A
O1168      C1178   1.265       .  A
O1169      C1177   1.280       .  A
O1170      C1179   1.273       .  A
O1171      C1180   1.264       .  A
O1172      C1179   1.278       .  A
O1173      C1180   1.280       .  A
O1174      C1181   1.280       .  A
O1175      C1181   1.265       .  A
C1176      C1770   1.427       .  S
C1177      C1775   1.440       .  S
C1178      C1773   1.434       .  S
C1179      C1782   1.450       .  S
C1180      C1772   1.428       .  S
C1181      C1851   1.444       .  S
Zn1182     O1186   1.948       .  S
Zn1182     O1187   2.010       .  S
Zn1182     O1191   1.978       .  S
Zn1182     O1198   1.971       .  S
Zn1183     O1188   1.937       .  S
Zn1183     O1190   1.991       .  S
Zn1183     O1194   1.974       .  S
Zn1184     O1192   2.084       .  S
Zn1185     O1186   1.959       .  S
Zn1185     O1193   2.026       .  S
Zn1185     O1196   2.071       .  S
Zn1185     O1197   2.043       .  S
O1187      C1199   1.270       .  A
O1188      C1200   1.262       .  A
O1189      C1201   1.282       .  A
O1191      C1201   1.265       .  A
O1192      C1200   1.283       .  A
O1193      C1202   1.273       .  A
O1195      C1202   1.276       .  A
O1196      C1203   1.279       .  A
O1197      C1204   1.278       .  A
O1198      C1204   1.268       .  A
C1199      C1791   1.428       .  S
C1200      C1774   1.432       .  S
C1201      C1840   1.448       .  S
C1202      C1766   1.444       .  S
C1203      C1767   1.440       .  S
C1204      C1771   1.429       .  S
Zn1205     O1209   1.975       .  S
Zn1205     O1214   2.022       .  S
Zn1205     O1221   2.071       .  S
Zn1206     O1211   1.986       .  S
Zn1206     O1213   1.951       .  S
Zn1206     O1217   2.007       .  S
Zn1207     O1209   1.957       .  S
Zn1207     O1212   2.009       .  S
Zn1207     O1215   2.059       .  S
Zn1207     O1218   2.032       .  S
Zn1208     O1209   1.954       .  S
Zn1208     O1216   2.002       .  S
Zn1208     O1219   2.052       .  S
Zn1208     O1220   1.994       .  S
O1210      C1222   1.280       .  A
O1212      C1224   1.270       .  A
O1213      C1222   1.264       .  A
O1214      C1224   1.271       .  A
O1215      C1223   1.278       .  A
O1216      C1225   1.273       .  A
O1218      C1225   1.275       .  A
O1219      C1226   1.276       .  A
O1220      C1227   1.268       .  A
O1221      C1227   1.279       .  A
C1222      C1759   1.431       .  S
C1223      C1768   1.440       .  S
C1224      C1757   1.435       .  S
C1225      C1761   1.435       .  S
C1226      C1763   1.443       .  S
C1227      C1817   1.446       .  S
Zn1228     O1232   1.957       .  S
Zn1228     O1233   2.071       .  S
Zn1228     O1237   2.041       .  S
Zn1228     O1244   2.022       .  S
Zn1229     O1232   1.929       .  S
Zn1229     O1234   1.983       .  S
Zn1229     O1236   1.979       .  S
Zn1229     O1240   1.949       .  S
Zn1230     O1232   1.952       .  S
Zn1230     O1235   1.983       .  S
Zn1230     O1238   2.018       .  S
Zn1230     O1241   1.978       .  S
Zn1231     O1232   1.971       .  S
Zn1231     O1239   2.076       .  S
Zn1231     O1242   2.072       .  S
Zn1231     O1243   2.020       .  S
O1233      C1245   1.279       .  A
O1234      C1246   1.267       .  A
O1235      C1247   1.269       .  A
O1236      C1245   1.266       .  A
O1237      C1247   1.276       .  A
O1238      C1246   1.271       .  A
O1239      C1248   1.280       .  A
O1240      C1249   1.263       .  A
O1241      C1248   1.265       .  A
O1242      C1249   1.280       .  A
O1243      C1250   1.272       .  A
O1244      C1250   1.273       .  A
C1245      C1776   1.441       .  S
C1246      C1755   1.427       .  S
C1247      C1760   1.434       .  S
C1248      C1808   1.444       .  S
C1249      C1762   1.432       .  S
C1250      C1753   1.436       .  S
Zn1251     O1255   1.970       .  S
Zn1251     O1256   2.029       .  S
Zn1251     O1260   2.084       .  S
Zn1251     O1267   2.077       .  S
Zn1252     O1255   1.955       .  S
Zn1252     O1257   2.044       .  S
Zn1252     O1259   2.040       .  S
Zn1252     O1263   2.075       .  S
Zn1253     O1255   1.946       .  S
Zn1253     O1258   1.976       .  S
Zn1253     O1261   1.973       .  S
Zn1253     O1264   2.014       .  S
Zn1254     O1255   1.932       .  S
Zn1254     O1262   1.985       .  S
Zn1254     O1265   1.972       .  S
Zn1254     O1266   1.944       .  S
O1256      C1268   1.274       .  A
O1257      C1269   1.278       .  A
O1258      C1270   1.265       .  A
O1259      C1268   1.275       .  A
O1260      C1270   1.280       .  A
O1261      C1269   1.268       .  A
O1262      C1271   1.266       .  A
O1263      C1272   1.280       .  A
O1264      C1271   1.270       .  A
O1265      C1272   1.265       .  A
O1266      C1273   1.263       .  A
O1267      C1273   1.282       .  A
C1268      C1747   1.445       .  S
C1269      C1751   1.429       .  S
C1270      C1804   1.446       .  S
C1271      C1756   1.427       .  S
C1272      C1780   1.440       .  S
C1273      C1749   1.432       .  S
Zn1274     O1278   1.961       .  S
Zn1274     O1279   2.070       .  S
Zn1274     O1283   2.052       .  S
Zn1274     O1290   2.070       .  S
Zn1275     O1280   1.950       .  S
Zn1275     O1282   1.978       .  S
Zn1276     O1284   2.054       .  S
Zn1277     O1278   1.937       .  S
Zn1277     O1285   1.974       .  S
Zn1277     O1288   1.989       .  S
Zn1277     O1289   1.956       .  S
O1279      C1291   1.279       .  A
O1280      C1292   1.264       .  A
O1281      C1293   1.271   1_545  A
O1283      C1293   1.277       .  A
O1284      C1292   1.279       .  A
O1285      C1294   1.265       .  A
O1286      C1295   1.268   1_545  A
O1287      C1294   1.280       .  A
O1288      C1295   1.267       .  A
O1289      C1296   1.265       .  A
O1290      C1296   1.281       .  A
C1291      C1790   1.440       .  S
C1292      C1752   1.428       .  S
C1293      C1764   1.443       .  S
C1294      C1796   1.443       .  S
C1295      C1745   1.422       .  S
C1296      C1750   1.432       .  S
Zn1297     O1301   1.963       .  S
Zn1297     O1302   2.057       .  S
Zn1297     O1306   2.052       .  S
Zn1297     O1313   2.037       .  S
Zn1298     O1301   1.943       .  S
Zn1298     O1303   2.038       .  S
Zn1298     O1305   1.999       .  S
Zn1298     O1309   1.977       .  S
Zn1299     O1301   1.945       .  S
Zn1299     O1304   1.974       .  S
Zn1299     O1307   2.022       .  S
Zn1299     O1310   1.987       .  S
Zn1300     O1301   1.970       .  S
Zn1300     O1308   2.070       .  S
Zn1300     O1311   2.046       .  S
Zn1300     O1312   2.009       .  S
O1302      C1314   1.278       .  A
O1303      C1315   1.274       .  A
O1304      C1316   1.268       .  A
O1305      C1314   1.270       .  A
O1306      C1316   1.278       .  A
O1307      C1315   1.272       .  A
O1308      C1317   1.279       .  A
O1309      C1318   1.268       .  A
O1310      C1317   1.267       .  A
O1311      C1318   1.279       .  A
O1312      C1319   1.269       .  A
O1313      C1319   1.273       .  A
C1314      C1741   1.442       .  S
C1315      C1812   1.442       .  S
C1317      C1739   1.445       .  S
C1318      C1738   1.433       .  S
C1319      C1744   1.441       .  S
Zn1320     O1324   1.936       .  S
Zn1320     O1325   1.979       .  S
Zn1320     O1329   1.960       .  S
Zn1320     O1336   2.008       .  S
Zn1321     O1324   1.965       .  S
Zn1321     O1326   2.028       .  S
Zn1321     O1328   2.061       .  S
Zn1321     O1332   2.058       .  S
Zn1322     O1324   1.970       .  S
Zn1322     O1327   2.062       .  S
Zn1322     O1330   2.005       .  S
Zn1322     O1333   2.082       .  S
Zn1323     O1324   1.938       .  S
Zn1323     O1331   1.978       .  S
Zn1323     O1334   1.965       .  S
Zn1323     O1335   2.000       .  S
O1325      C1337   1.266       .  A
O1326      C1338   1.274       .  A
O1327      C1339   1.280       .  A
O1328      C1337   1.278       .  A
O1329      C1339   1.265       .  A
O1330      C1338   1.270       .  A
O1331      C1340   1.266       .  A
O1332      C1341   1.279       .  A
O1333      C1340   1.281       .  A
O1334      C1341   1.266       .  A
O1335      C1342   1.269       .  A
O1336      C1342   1.270       .  A
C1337      C1731   1.438       .  S
C1338      C1734   1.435       .  S
C1339      C1736   1.433       .  S
C1340      C1730   1.445       .  S
C1341      C1737   1.432       .  S
C1342      C1806   1.429       .  S
Zn1343     O1347   1.939       .  S
Zn1343     O1348   1.997       .  S
Zn1343     O1352   1.976       .  S
Zn1343     O1359   1.963       .  S
Zn1344     O1347   1.938       .  S
Zn1344     O1349   1.962       .  S
Zn1344     O1351   2.017       .  S
Zn1344     O1355   1.982       .  S
Zn1345     O1347   1.971       .  S
Zn1345     O1350   2.086       .  S
Zn1345     O1353   2.065       .  S
Zn1345     O1356   2.017       .  S
Zn1346     O1347   1.965       .  S
Zn1346     O1354   2.039       .  S
Zn1346     O1357   2.064       .  S
Zn1346     O1358   2.061       .  S
O1348      C1360   1.268       .  A
O1349      C1361   1.265       .  A
O1350      C1362   1.282       .  A
O1351      C1360   1.270       .  A
O1352      C1362   1.265       .  A
O1353      C1361   1.280       .  A
O1354      C1363   1.275       .  A
O1355      C1364   1.267       .  A
O1356      C1363   1.271       .  A
O1357      C1364   1.278       .  A
O1358      C1365   1.279       .  A
O1359      C1365   1.266       .  A
C1360      C1798   1.431       .  S
C1361      C1724   1.434       .  S
C1362      C1725   1.445       .  S
C1363      C1743   1.441       .  S
C1364      C1727   1.439       .  S
C1365      C1722   1.432       .  S
Zn1366     O1370   1.943       .  S
Zn1366     O1371   1.988       .  S
Zn1366     O1375   1.977       .  S
Zn1366     O1382   2.024       .  S
Zn1367     O1370   1.968       .  S
Zn1367     O1372   1.998       .  S
Zn1367     O1374   2.063       .  S
Zn1367     O1378   2.044       .  S
Zn1368     O1370   1.962       .  S
Zn1368     O1373   2.053       .  S
Zn1368     O1376   2.028       .  S
Zn1368     O1379   2.054       .  S
Zn1369     O1370   1.940       .  S
Zn1369     O1377   1.997       .  S
Zn1369     O1380   1.977       .  S
Zn1369     O1381   2.038       .  S
O1371      C1383   1.267       .  A
O1372      C1384   1.268       .  A
O1373      C1385   1.278       .  A
O1374      C1383   1.278       .  A
O1375      C1385   1.269       .  A
O1376      C1384   1.272       .  A
O1377      C1386   1.270       .  A
O1378      C1387   1.278       .  A
O1379      C1386   1.278       .  A
O1380      C1387   1.268       .  A
O1381      C1388   1.274       .  A
O1382      C1388   1.273       .  A
C1383      C1717   1.443       .  S
C1384      C1733   1.435       .  S
C1386      C1719   1.441       .  S
C1387      C1721   1.433       .  S
C1388      C1793   1.443       .  S
Zn1389     O1393   1.966       .  S
Zn1389     O1394   2.047       .  S
Zn1389     O1398   2.067       .  S
Zn1389     O1405   2.062       .  S
Zn1390     O1393   1.970       .  S
Zn1390     O1395   2.052       .  S
Zn1390     O1397   2.006       .  S
Zn1390     O1401   2.072       .  S
Zn1391     O1393   1.939       .  S
Zn1391     O1396   1.987       .  S
Zn1391     O1399   1.964       .  S
Zn1391     O1402   2.021       .  S
Zn1392     O1393   1.941       .  S
Zn1392     O1400   2.006       .  S
Zn1392     O1403   1.979       .  S
Zn1392     O1404   1.967       .  S
O1394      C1406   1.276       .  A
O1395      C1407   1.278       .  A
O1396      C1408   1.268       .  A
O1397      C1406   1.270       .  A
O1398      C1408   1.279       .  A
O1399      C1407   1.266       .  A
O1400      C1409   1.270       .  A
O1401      C1410   1.279       .  A
O1402      C1409   1.271       .  A
O1403      C1410   1.266       .  A
O1404      C1411   1.267       .  A
O1405      C1411   1.280       .  A
C1406      C1716   1.441       .  S
C1407      C1711   1.431       .  S
C1408      C1742   1.441       .  S
C1409      C1846   1.434       .  S
C1410      C1714   1.442       .  S
C1411      C1709   1.434       .  S
Zn1412     O1416   1.967       .  S
Zn1412     O1417   2.013       .  S
Zn1412     O1421   2.078       .  S
Zn1412     O1428   2.054       .  S
Zn1413     O1416   1.961       .  S
Zn1413     O1418   2.045       .  S
Zn1413     O1420   2.020       .  S
Zn1413     O1424   2.053       .  S
Zn1414     O1416   1.944       .  S
Zn1414     O1419   1.992       .  S
Zn1414     O1422   1.975       .  S
Zn1414     O1425   2.012       .  S
Zn1415     O1416   1.939       .  S
Zn1415     O1423   2.023       .  S
Zn1415     O1426   1.990       .  S
Zn1415     O1427   1.972       .  S
O1417      C1429   1.270       .  A
O1418      C1430   1.277       .  A
O1419      C1431   1.267       .  A
O1420      C1429   1.272       .  A
O1421      C1431   1.281       .  A
O1422      C1430   1.268       .  A
O1423      C1432   1.272       .  A
O1424      C1433   1.277       .  A
O1425      C1432   1.271       .  A
O1426      C1433   1.268       .  A
O1427      C1434   1.267       .  A
O1428      C1434   1.279       .  A
C1429      C1708   1.436       .  S
C1431      C1705   1.448       .  S
C1432      C1838   1.435       .  S
C1433      C1732   1.439       .  S
C1434      C1710   1.434       .  S
Zn1435     O1439   1.943       .  S
Zn1435     O1440   2.034       .  S
Zn1435     O1444   1.997       .  S
Zn1435     O1451   1.973       .  S
Zn1436     O1439   1.944       .  S
Zn1436     O1441   1.974       .  S
Zn1436     O1443   2.014       .  S
Zn1436     O1447   1.984       .  S
Zn1437     O1439   1.962       .  S
Zn1437     O1442   2.052       .  S
Zn1437     O1445   2.053       .  S
Zn1437     O1448   2.031       .  S
Zn1438     O1439   1.972       .  S
Zn1438     O1446   2.020       .  S
Zn1438     O1449   2.082       .  S
Zn1438     O1450   2.050       .  S
O1440      C1452   1.273       .  A
O1441      C1453   1.268       .  A
O1442      C1454   1.277       .  A
O1443      C1452   1.271       .  A
O1444      C1454   1.269       .  A
O1445      C1453   1.278       .  A
O1446      C1455   1.271       .  A
O1447      C1456   1.266       .  A
O1448      C1455   1.273       .  A
O1449      C1456   1.281       .  A
O1450      C1457   1.279       .  A
O1451      C1457   1.267       .  A
C1452      C1827   1.439       .  S
C1454      C1728   1.440       .  S
C1455      C1715   1.441       .  S
C1456      C1703   1.446       .  S
C1457      C1702   1.434       .  S
Zn1458     O1462   1.968       .  S
Zn1458     O1463   2.056       .  S
Zn1458     O1467   1.999       .  S
Zn1458     O1474   2.073       .  S
Zn1459     O1462   1.936       .  S
Zn1459     O1464   1.980       .  S
Zn1459     O1466   1.966       .  S
Zn1459     O1470   2.014       .  S
Zn1460     O1462   1.966       .  S
Zn1460     O1465   2.039       .  S
Zn1460     O1468   2.067       .  S
Zn1460     O1471   2.063       .  S
Zn1461     O1462   1.938       .  S
Zn1461     O1469   1.964       .  S
Zn1461     O1472   2.000       .  S
Zn1461     O1473   1.977       .  S
O1463      C1475   1.279       .  A
O1464      C1476   1.267       .  A
O1465      C1477   1.275       .  A
O1466      C1475   1.266       .  A
O1467      C1477   1.269       .  A
O1468      C1476   1.279       .  A
O1469      C1478   1.266       .  A
O1470      C1479   1.271       .  A
O1471      C1478   1.279       .  A
O1472      C1479   1.269       .  A
O1473      C1480   1.265       .  A
O1474      C1480   1.280       .  A
C1475      C1700   1.433       .  S
C1476      C1720   1.440       .  S
C1477      C1707   1.436       .  S
C1478      C1701   1.433       .  S
C1479      C1821   1.431       .  S
C1480      C1697   1.442       .  S
Zn1481     O1485   1.959       .  S
Zn1481     O1486   2.024       .  S
Zn1481     O1490   2.043       .  S
Zn1481     O1497   2.074       .  S
Zn1482     O1485   1.974       .  S
Zn1482     O1487   2.080       .  S
Zn1482     O1489   2.029       .  S
Zn1483     O1485   1.952       .  S
Zn1483     O1488   1.986       .  S
Zn1483     O1491   1.985       .  S
Zn1483     O1494   2.024       .  S
Zn1484     O1492   1.987       .  S
Zn1484     O1495   1.944       .  S
Zn1484     O1496   1.975       .  S
O1486      C1498   1.273       .  A
O1487      C1499   1.281       .  A
O1488      C1500   1.270       .  A
O1489      C1498   1.274       .  A
O1490      C1500   1.277       .  A
O1491      C1499   1.266       .  A
O1493      C1502   1.281       .  A
O1494      C1501   1.272       .  A
O1495      C1502   1.263       .  A
O1497      C1503   1.279       .  A
C1498      C1783   1.439       .  S
C1499      C1704   1.446       .  S
C1500      C1692   1.434       .  S
C1501      C1695   1.430       .  S
C1502      C1689   1.432       .  S
C1503      C1693   1.441       .  S
Zn1504     O1508   1.927       .  S
Zn1504     O1509   1.953       .  S
Zn1504     O1513   1.976       .  S
Zn1504     O1520   1.996       .  S
Zn1505     O1508   1.970       .  S
Zn1505     O1510   2.022       .  S
Zn1505     O1512   2.067       .  S
Zn1505     O1516   2.069       .  S
Zn1506     O1508   1.951       .  S
Zn1506     O1511   2.048       .  S
Zn1506     O1514   2.002       .  S
Zn1506     O1517   2.024       .  S
Zn1507     O1508   1.952       .  S
Zn1507     O1515   2.005       .  S
Zn1507     O1518   1.985       .  S
Zn1507     O1519   2.043       .  S
O1509      C1521   1.264       .  A
O1510      C1522   1.271       .  A
O1511      C1523   1.276       .  A
O1512      C1521   1.280       .  A
O1513      C1523   1.266       .  A
O1514      C1522   1.270       .  A
O1515      C1524   1.273       .  A
O1516      C1525   1.280       .  A
O1517      C1524   1.274       .  A
O1518      C1525   1.267       .  A
O1519      C1526   1.275       .  A
O1520      C1526   1.268       .  A
C1521      C1691   1.432       .  S
C1522      C1777   1.433       .  S
C1523      C1685   1.434       .  S
C1524      C1690   1.435       .  S
C1525      C1698   1.443       .  S
C1526      C1688   1.437       .  S
Zn1527     O1531   1.932       .  S
Zn1527     O1532   1.960       .  S
Zn1527     O1536   2.007       .  S
Zn1527     O1543   1.978       .  S
Zn1528     O1531   1.961       .  S
Zn1528     O1533   2.067       .  S
Zn1528     O1535   2.048       .  S
Zn1528     O1539   2.001       .  S
Zn1529     O1531   1.936       .  S
Zn1529     O1534   1.997       .  S
Zn1529     O1537   1.983       .  S
Zn1529     O1540   1.964       .  S
Zn1530     O1531   1.958       .  S
Zn1530     O1538   2.062       .  S
Zn1530     O1541   2.039       .  S
Zn1530     O1542   2.062       .  S
O1532      C1544   1.265       .  A
O1533      C1545   1.278       .  A
O1534      C1546   1.269       .  A
O1535      C1544   1.278       .  A
O1536      C1546   1.270       .  A
O1537      C1545   1.266       .  A
O1538      C1547   1.280       .  A
O1539      C1548   1.269       .  A
O1540      C1547   1.266       .  A
O1541      C1548   1.275       .  A
O1542      C1549   1.278       .  A
O1543      C1549   1.266       .  A
C1544      C1679   1.428       .  S
C1545      C1713   1.443       .  S
C1546      C1769   1.427       .  S
C1547      C1681   1.433       .  S
C1548      C1687   1.437       .  S
C1549      C1683   1.437       .  S
Zn1550     O1554   1.955       .  S
Zn1550     O1555   1.981       .  S
Zn1550     O1559   1.988       .  S
Zn1550     O1566   2.025       .  S
Zn1551     O1554   1.959       .  S
Zn1551     O1556   2.032       .  S
Zn1551     O1558   2.035       .  S
Zn1551     O1562   2.071       .  S
Zn1552     O1563   2.074       .  S
Zn1553     O1561   1.945       .  S
Zn1553     O1564   1.982       .  S
Zn1553     O1565   1.988       .  S
O1555      C1567   1.269       .  A
O1556      C1568   1.274       .  A
O1557      C1569   1.280       .  A
O1558      C1567   1.276       .  A
O1559      C1569   1.267       .  A
O1560      C1568   1.273       .  A
O1561      C1570   1.263       .  A
O1562      C1571   1.279       .  A
O1563      C1570   1.282       .  A
O1566      C1572   1.272       .  A
C1567      C1680   1.430       .  S
C1568      C1765   1.443       .  S
C1569      C1706   1.448       .  S
C1570      C1682   1.431       .  S
C1571      C1677   1.442       .  S
C1572      C1696   1.430       .  S
Zn1573     O1578   1.961       .  S
Zn1573     O1589   1.989       .  S
Zn1574     O1581   2.054       .  S
Zn1575     O1577   1.941       .  S
Zn1575     O1580   2.008       .  S
Zn1575     O1583   1.975       .  S
Zn1575     O1586   1.967       .  S
Zn1576     O1577   1.965       .  S
Zn1576     O1584   2.065       .  S
Zn1576     O1587   2.046       .  S
Zn1576     O1588   2.066       .  S
O1578      C1590   1.266       .  A
O1579      C1591   1.281       .  A
O1580      C1592   1.270       .  A
O1581      C1590   1.279       .  A
O1582      C1592   1.271       .  A
O1583      C1591   1.265       .  A
O1584      C1593   1.280       .  A
O1585      C1594   1.271       .  A
O1586      C1593   1.267       .  A
O1587      C1594   1.275       .  A
O1588      C1595   1.279       .  A
C1590      C1672   1.430       .  S
C1591      C1740   1.444       .  S
C1592      C1758   1.435       .  S
C1593      C1674   1.435       .  S
C1594      C1676   1.443       .  S
C1595      C1678   1.442       .  S
Zn1596     O1600   1.942       .  S
Zn1596     O1601   1.973       .  S
Zn1596     O1605   2.014       .  S
Zn1596     O1612   1.989       .  S
Zn1597     O1600   1.961       .  S
Zn1597     O1602   2.050       .  S
Zn1597     O1604   2.043       .  S
Zn1597     O1608   2.015       .  S
Zn1598     O1600   1.938       .  S
Zn1598     O1603   2.026       .  S
Zn1598     O1606   1.989       .  S
Zn1598     O1609   1.975       .  S
Zn1599     O1600   1.966       .  S
Zn1599     O1607   2.055       .  S
Zn1599     O1610   1.999       .  S
Zn1599     O1611   2.070       .  S
O1601      C1613   1.267       .  A
O1602      C1614   1.277       .  A
O1603      C1615   1.273       .  A
O1604      C1613   1.276       .  A
O1605      C1615   1.272       .  A
O1606      C1614   1.268       .  A
O1607      C1616   1.279       .  A
O1608      C1617   1.271       .  A
O1609      C1616   1.267       .  A
O1610      C1617   1.268       .  A
O1611      C1618   1.279       .  A
O1612      C1618   1.268       .  A
C1613      C1671   1.431       .  S
C1614      C1684   1.438       .  S
C1615      C1754   1.436       .  S
C1616      C1673   1.435       .  S
C1617      C1669   1.430       .  S
C1618      C1729   1.446       .  S
Zn1619     O1623   1.972       .  S
Zn1619     O1624   2.084       .  S
Zn1619     O1628   2.046       .  S
Zn1619     O1635   2.079       .  S
Zn1620     O1623   1.950       .  S
Zn1620     O1625   1.976       .  S
Zn1620     O1627   1.976       .  S
Zn1620     O1631   2.015       .  S
Zn1621     O1623   1.957       .  S
Zn1621     O1626   2.025       .  S
Zn1621     O1629   2.035       .  S
Zn1621     O1632   2.055       .  S
Zn1622     O1623   1.934       .  S
Zn1622     O1630   1.969       .  S
Zn1622     O1633   1.996       .  S
Zn1622     O1634   1.941       .  S
O1624      C1636   1.281       .  A
O1625      C1637   1.268       .  A
O1626      C1638   1.272       .  A
O1627      C1636   1.266       .  A
O1628      C1638   1.275       .  A
O1629      C1637   1.276       .  A
O1630      C1639   1.265       .  A
O1631      C1640   1.270       .  A
O1632      C1639   1.277       .  A
O1633      C1640   1.267       .  A
O1634      C1641   1.262       .  A
O1635      C1641   1.282       .  A
C1636      C1726   1.445       .  S
C1637      C1668   1.429       .  S
C1638      C1748   1.445       .  S
C1639      C1686   1.434       .  S
C1640      C1670   1.430       .  S
C1641      C1665   1.431       .  S
Zn1642     O1651   1.975       .  S
Zn1642     O1658   1.952       .  S
Zn1643     O1646   1.936       .  S
Zn1643     O1648   1.955       .  S
Zn1643     O1650   1.987       .  S
Zn1643     O1654   1.966       .  S
Zn1644     O1646   1.962       .  S
Zn1644     O1649   2.074       .  S
Zn1644     O1652   2.069       .  S
Zn1644     O1655   2.053       .  S
Zn1645     O1657   2.055       .  S
O1647      C1659   1.268   1_545  A
O1648      C1660   1.264       .  A
O1649      C1661   1.280       .  A
O1650      C1659   1.267       .  A
O1652      C1660   1.281       .  A
O1653      C1662   1.271   1_545  A
O1654      C1663   1.264       .  A
O1655      C1662   1.277       .  A
O1656      C1663   1.280       .  A
O1657      C1664   1.279       .  A
O1658      C1664   1.264       .  A
C1659      C1746   1.422       .  S
C1660      C1666   1.433       .  S
C1661      C1694   1.440       .  S
C1662      C1675   1.443       .  S
C1663      C1718   1.442       .  S
C1664      C1667   1.428       .  S
C1665      C1666   1.206       .  T
C1667      C1668   1.203       .  T
C1669      C1670   1.203       .  T
C1671      C1672   1.204       .  T
C1673      C1674   1.207       .  T
C1679      C1680   1.203       .  T
C1681      C1682   1.205       .  T
C1683      C1684   1.208   1_655  T
C1685      C1686   1.206   1_655  T
C1687      C1688   1.207       .  T
C1689      C1690   1.206       .  T
C1691      C1692   1.206       .  T
C1697      C1698   1.211       .  T
C1699      C1700   1.206       .  T
C1701      C1702   1.206       .  T
C1703      C1704   1.214       .  T
C1705      C1706   1.215       .  T
C1707      C1708   1.207       .  T
C1709      C1710   1.206       .  T
C1711      C1712   1.205       .  T
C1713      C1714   1.211       .  T
C1715      C1716   1.210       .  T
C1717      C1718   1.211       .  T
C1719      C1720   1.210       .  T
C1721      C1722   1.206       .  T
C1723      C1724   1.207       .  T
C1725      C1726   1.213       .  T
C1727      C1728   1.209       .  T
C1729      C1730   1.213       .  T
C1731      C1732   1.209       .  T
C1733      C1734   1.206       .  T
C1735      C1736   1.206       .  T
C1737      C1738   1.205       .  T
C1739      C1740   1.212       .  T
C1741      C1742   1.210       .  T
C1743      C1744   1.209       .  T
C1745      C1746   1.198       .  T
C1747      C1748   1.212       .  T
C1749      C1750   1.206       .  T
C1751      C1752   1.203       .  T
C1753      C1754   1.207   1_556  T
C1755      C1756   1.201       .  T
C1757      C1758   1.206   1_556  T
C1759      C1760   1.206       .  T
C1761      C1762   1.206       .  T
C1765      C1766   1.211   1_554  T
C1769      C1770   1.201   1_554  T
C1771      C1772   1.203       .  T
C1773      C1774   1.206       .  T
C1775      C1776   1.210   1_655  T
C1777      C1778   1.204       .  T
C1779      C1780   1.210   1_655  T
C1781      C1782   1.215       .  T
C1783      C1784   1.208       .  T
C1785      C1786   1.208       .  T
C1787      C1788   1.203       .  T
C1793      C1794   1.210       .  T
C1795      C1796   1.211       .  T
C1797      C1798   1.203       .  T
C1799      C1800   1.205       .  T
C1801      C1802   1.207       .  T
C1803      C1804   1.213       .  T
C1805      C1806   1.202   1_556  T
C1807      C1808   1.212       .  T
C1809      C1810   1.208       .  T
C1811      C1812   1.210   1_556  T
C1813      C1814   1.205       .  T
C1815      C1816   1.205       .  T
C1817      C1818   1.214       .  T
C1819      C1820   1.203       .  T
C1821      C1822   1.203       .  T
C1823      C1824   1.209       .  T
C1825      C1826   1.208       .  T
C1827      C1828   1.208       .  T
C1829      C1830   1.204       .  T
C1831      C1832   1.207       .  T
C1833      C1834   1.217       .  T
C1835      C1836   1.208       .  T
C1837      C1838   1.206   1_556  T
C1839      C1840   1.215       .  T
C1841      C1842   1.209       .  T
C1843      C1844   1.212       .  T
C1845      C1846   1.205   1_556  T
C1847      C1848   1.206       .  T
C1849      C1850   1.206       .  T
C1851      C1852   1.212       .  T
C1853      C1854   1.208       .  T
C1855      C1856   1.204       .  T
