geometry optimzed in LAMMPS
_audit_creation_date              2020-12-01 
_audit_creation_method            'lammps2cif' 
_symmetry_space_group_name_H-M    'P1' 
_symmetry_Int_Tables_number       1 
_symmetry_cell_setting            triclinic 
loop_ 
_symmetry_equiv_pos_as_xyz 
  x,y,z 
_cell_length_a                    39.50378075 
_cell_length_b                    76.05938679242387 
_cell_length_c                    39.423596923476055 
_cell_angle_alpha                 89.48793853413197 
_cell_angle_beta                  89.8257283104797 
_cell_angle_gamma                 89.96886147996263 
loop_ 
_atom_site_label 
_atom_site_type_symbol 
_atom_site_fract_x 
_atom_site_fract_y 
_atom_site_fract_z 
_atom_site_charge 
O1          O  0.13154680  0.87189089  0.44294026    -0.78300
C2          C  0.21932092  0.87709575  0.37623120     0.82700
O3          O  0.20995185  0.82979196  0.48797306    -0.79400
O4          O  0.28931822  0.88104414  0.46045468    -0.80900
O5          O  0.19380037  0.91424405  0.49909466    -0.80700
O6          O  0.13025700  0.88468615  0.49356260    -0.79300
Zn7        Zn  0.17930109  0.86319094  0.43729758     1.55700
O8          O  0.23595613  0.91485967  0.46146193    -0.80700
Cd9        Cd  0.18136753  0.88782154  0.50347064     1.59700
Cd10       Cd  0.23274962  0.85420430  0.49707074     1.59600
O11         O  0.19157622  0.88064434  0.55333113    -0.80700
O12         O  0.20845444  0.87333478  0.47121891    -1.91200
Cd13       Cd  0.24138185  0.88882036  0.44752745     1.59900
O14         O  0.22848346  0.85861697  0.54886387    -0.80700
O15         O  0.23770173  0.88662352  0.39524106    -0.79300
C16         C  0.18610282  0.82603551  0.46742409     0.83200
C17         C  0.11518916  0.87857035  0.46761682     0.82900
O18         O  0.19629131  0.86717732  0.38874669    -0.78300
C19         C  0.21620929  0.92263531  0.48213095     0.83700
O20         O  0.17433474  0.83747286  0.44683901    -0.78400
C21         C  0.21128957  0.86929018  0.56682384     0.83800
C22         C  0.30264475  0.86742580  0.47393319     0.84100
O23         O  0.28471445  0.85492385  0.48638202    -0.80800
O24         O  0.62989080  0.87210951  0.44785505    -0.78300
C25         C  0.71817227  0.87636716  0.37820698     0.82700
O26         O  0.71298739  0.83110431  0.49033630    -0.79400
O27         O  0.78812638  0.88396466  0.46332841    -0.80900
O28         O  0.69471099  0.91685465  0.49803690    -0.80700
O29         O  0.63114340  0.88710886  0.49621243    -0.79300
Zn30       Zn  0.67798799  0.86376721  0.44055010     1.55700
O31         O  0.73319404  0.91612780  0.45681801    -0.80700
Cd32       Cd  0.68239115  0.89030552  0.50484025     1.59700
Cd33       Cd  0.73363176  0.85613893  0.49982089     1.59600
O34         O  0.69344495  0.88387255  0.55490048    -0.80700
O35         O  0.70799465  0.87465398  0.47328480    -1.91200
Cd36       Cd  0.74016976  0.88972819  0.44798135     1.59900
O37         O  0.72850621  0.86095677  0.55165338    -0.80700
O38         O  0.73770299  0.88549617  0.39668012    -0.79300
C39         C  0.68900672  0.82669018  0.47035543     0.83200
C40         C  0.61481151  0.88003298  0.47200026     0.82900
O41         O  0.69387694  0.86744401  0.39118659    -0.78300
C42         C  0.71528620  0.92466488  0.47793024     0.83700
O43         O  0.67521727  0.83787882  0.45051210    -0.78400
C44         C  0.71223890  0.87229038  0.56902418     0.83800
C45         C  0.80266833  0.87114325  0.47825039     0.84100
O46         O  0.78603066  0.85807738  0.49037462    -0.80800
O47         O  0.30106816  0.13531584  0.61541029    -0.78300
C48         C  0.37766693  0.12310533  0.53320755     0.82700
O49         O  0.28328534  0.17458051  0.52269483    -0.79400
O50         O  0.29682685  0.12424673  0.45096148    -0.80900
O51         O  0.25732873  0.08905206  0.54570239    -0.80700
O52         O  0.25617936  0.11788877  0.61106719    -0.79300
Zn53       Zn  0.31628407  0.13953200  0.56690751     1.55700
O54         O  0.29597380  0.08991371  0.50444518    -0.80700
Cd55       Cd  0.25179262  0.11521363  0.55889230     1.59700
Cd56       Cd  0.26014196  0.15046682  0.51104924     1.59600
O57         O  0.20355109  0.12283027  0.54627177    -0.80700
O58         O  0.28458707  0.13052815  0.53426198    -1.91200
Cd59       Cd  0.30920500  0.11617891  0.49989811     1.59900
O60         O  0.20824672  0.14944052  0.52234281    -0.80700
O61         O  0.36099992  0.11787142  0.50753222    -0.79300
C62         C  0.30840123  0.17755691  0.54223702     0.83200
C63         C  0.27685545  0.12666945  0.62902019     0.82900
O64         O  0.36304534  0.13007184  0.55864286    -0.78300
C65         C  0.27541363  0.08139048  0.52340928     0.83700
O66         O  0.32161258  0.16532593  0.55997937    -0.78400
C67         C  0.19023499  0.13670102  0.53375448     0.83800
C68         C  0.27792785  0.13647229  0.43920091     0.84100
O69         O  0.26298220  0.14733624  0.45870266    -0.80800
O70         O  0.80295477  0.13972682  0.61795806    -0.78300
C71         C  0.87717926  0.12593361  0.53450767     0.82700
O72         O  0.77530339  0.17500103  0.52242908    -0.79400
O73         O  0.79380043  0.12296191  0.45512602    -0.80900
O74         O  0.75882594  0.09038857  0.55577639    -0.80700
O75         O  0.75951973  0.12117123  0.61760863    -0.79300
Zn76       Zn  0.81566869  0.14261518  0.56810616     1.55700
O77         O  0.79427400  0.08985383  0.51172140    -0.80700
Cd78       Cd  0.75290406  0.11671370  0.56629607     1.59700
Cd79       Cd  0.75645369  0.14989276  0.51361716     1.59600
O80         O  0.70350373  0.12277847  0.55509853    -0.80700
O81         O  0.78367724  0.13147366  0.53816337    -1.91200
Cd82       Cd  0.80770198  0.11616988  0.50464179     1.59900
O83         O  0.70539613  0.14800142  0.52591188    -0.80700
O84         O  0.85984831  0.11870985  0.51111326    -0.79300
C85         C  0.80080233  0.17947450  0.54014686     0.83200
C86         C  0.78009773  0.13096991  0.63359783     0.82900
O87         O  0.86307020  0.13423599  0.55870739    -0.78300
C88         C  0.77484037  0.08200613  0.53292042     0.83700
O89         O  0.81717545  0.16829510  0.55781482    -0.78400
C90         C  0.68879269  0.13561557  0.54031724     0.83800
C91         C  0.77385327  0.13462938  0.44292782     0.84100
O92         O  0.75871648  0.14563488  0.46191212    -0.80800
O93         O  0.30278494  0.86287208  0.88875567    -0.78300
C94         C  0.37807860  0.87643304  0.97123609     0.82700
O95         O  0.28159720  0.82693501  0.98607342    -0.79400
O96         O  0.29548173  0.87935235  0.05240435    -0.80900
O97         O  0.25865208  0.91130127  0.95264532    -0.80700
O98         O  0.25875136  0.88095342  0.89111670    -0.79300
Zn99       Zn  0.31651098  0.86037929  0.93824176     1.55700
O100        O  0.29632951  0.91217456  0.99458218    -0.80700
Cd101      Cd  0.25307064  0.88501183  0.94245391     1.59700
Cd102      Cd  0.25899450  0.85157680  0.99462040     1.59600
O103        O  0.20425911  0.87825097  0.95406389    -0.80700
O104        O  0.28473794  0.87054280  0.96968347    -1.91200
Cd105      Cd  0.30925289  0.88587871  0.00262130     1.59900
O106        O  0.20713637  0.85294078  0.98293319    -0.80700
O107        O  0.36139876  0.88277679  0.99612054    -0.79300
C108        C  0.30763433  0.82343074  0.96797619     0.83200
C109        C  0.27921945  0.87151525  0.87415437     0.82900
O110        O  0.36326332  0.86950993  0.94598959    -0.78300
C111        C  0.27592872  0.91985169  0.97417337     0.83700
O112        O  0.32143098  0.83505102  0.94916483    -0.78400
C113        C  0.18997452  0.86521929  0.96867285     0.83800
C114        C  0.27649096  0.86737653  0.06512317     0.84100
O115        O  0.26177506  0.85607169  0.04650121    -0.80800
O116        O  0.79879721  0.86664938  0.89213343    -0.78300
C117        C  0.87730429  0.87884920  0.97150695     0.82700
O118        O  0.77928158  0.82904773  0.98605556    -0.79400
O119        O  0.79597864  0.87956007  0.05624406    -0.80900
O120        O  0.76232820  0.91527444  0.95940005    -0.80700
O121        O  0.75583757  0.88539790  0.89595029    -0.79300
Zn122      Zn  0.81458165  0.86311206  0.94048958     1.55700
O123        O  0.79970645  0.91389097  0.00156709    -0.80700
Cd124      Cd  0.75323570  0.88917375  0.94807933     1.59700
Cd125      Cd  0.75782221  0.85387768  0.99593182     1.59600
O126        O  0.70495290  0.88373810  0.96398149    -0.80700
O127        O  0.78426228  0.87320541  0.97299730    -1.91200
Cd128      Cd  0.81029520  0.88707019  0.00707530     1.59900
O129        O  0.70607431  0.85648591  0.98559486    -0.80700
O130        O  0.86213641  0.88348251  0.99870065    -0.79300
C131        C  0.80535898  0.82554880  0.96799997     0.83200
C132        C  0.77547162  0.87578123  0.87826211     0.82900
O133        O  0.86119688  0.87282484  0.94618913    -0.78300
C134        C  0.78050497  0.92274708  0.98173400     0.83700
O135        O  0.81967506  0.83739201  0.95002119    -0.78400
C136        C  0.68997618  0.87037582  0.97668379     0.83800
C137        C  0.77551619  0.86786909  0.06759889     0.84100
O138        O  0.76016351  0.85737237  0.04784195    -0.80800
O139        O  0.13275093  0.12851219  0.06174914    -0.78300
C140        C  0.22385508  0.12578640  0.12827977     0.82700
O141        O  0.21068836  0.17050355  0.01592224    -0.79400
O142        O  0.29130053  0.11893923  0.03933317    -0.80900
O143        O  0.19759315  0.08454123  0.01102660    -0.80700
O144        O  0.13255716  0.11372656  0.01314080    -0.79300
Zn145      Zn  0.18061603  0.13707259  0.06761572     1.55700
O146        O  0.23862975  0.08605476  0.04941855    -0.80700
Cd147      Cd  0.18395693  0.11077902  0.00354180     1.59700
Cd148      Cd  0.23324705  0.14585767  0.00622607     1.59600
O149        O  0.19428881  0.11665475  0.95303017    -0.80700
O150        O  0.21006901  0.12683656  0.03375257    -1.91200
Cd151      Cd  0.24445663  0.11257325  0.05765258     1.59900
O152        O  0.22716553  0.14045676  0.95489880    -0.80700
O153        O  0.24388499  0.11726140  0.10907589    -0.79300
C154        C  0.18726441  0.17422136  0.03720842     0.83200
C155        C  0.11695316  0.12078227  0.03796610     0.82900
O156        O  0.19796926  0.13373411  0.11625107    -0.78300
C157        C  0.21986572  0.07716532  0.02974411     0.83700
O158        O  0.17586552  0.16270543  0.05786875    -0.78400
C159        C  0.21190293  0.12853401  0.93822619     0.83800
C160        C  0.30415722  0.13215447  0.02405727     0.84100
O161        O  0.28605330  0.14502093  0.01342183    -0.80800
O162        O  0.63173314  0.13468907  0.06296124    -0.78300
C163        C  0.71557587  0.12499652  0.13379454     0.82700
O164        O  0.71775840  0.17346346  0.02309527    -0.79400
O165        O  0.79084664  0.12132114  0.05448386    -0.80900
O166        O  0.69441236  0.08937834  0.01003439    -0.80700
O167        O  0.63208758  0.12031816  0.01394959    -0.79300
Zn168      Zn  0.68046693  0.14122673  0.07186495     1.55700
O169        O  0.73568285  0.08815314  0.04834352    -0.80700
Cd170      Cd  0.68340062  0.11612409  0.00580044     1.59700
Cd171      Cd  0.73729311  0.14848119  0.01373029     1.59600
O172        O  0.69568740  0.12337594  0.95630254    -0.80700
O173        O  0.71021757  0.13014858  0.03892801    -1.91200
Cd174      Cd  0.74146386  0.11399444  0.06332819     1.59900
O175        O  0.73472080  0.14429682  0.96170869    -0.80700
O176        O  0.73444021  0.11555687  0.11503179    -0.79300
C177        C  0.69496249  0.17831603  0.04405807     0.83200
C178        C  0.61613967  0.12761807  0.03828237     0.82900
O179        O  0.69383334  0.13556427  0.12098519    -0.78300
C180        C  0.71618472  0.08066362  0.02718972     0.83700
O181        O  0.68077577  0.16738747  0.06424306    -0.78400
C182        C  0.71689454  0.13417638  0.94329415     0.83800
C183        C  0.80523930  0.13472371  0.04123931     0.84100
O184        O  0.78832010  0.14695091  0.02671074    -0.80800
O185        O  0.44065443  0.36696775  0.62398444    -0.78300
C186        C  0.36645187  0.38046756  0.54085553     0.82700
O187        O  0.46288982  0.33025954  0.52746424    -0.79400
O188        O  0.44796333  0.38220123  0.46102350    -0.80900
O189        O  0.48986964  0.41501640  0.55604994    -0.80700
O190        O  0.48368139  0.38579290  0.62204715    -0.79300
Zn191      Zn  0.42763177  0.36352132  0.57462476     1.55700
O192        O  0.45035219  0.41548625  0.51582226    -0.80700
Cd193      Cd  0.49214433  0.38859876  0.57028477     1.59700
Cd194      Cd  0.48555483  0.35489063  0.51891039     1.59600
O195        O  0.54062833  0.37973345  0.56224955    -0.80700
O196        O  0.46014354  0.37394033  0.54364729    -1.91200
Cd197      Cd  0.43597209  0.38937643  0.51029211     1.59900
O198        O  0.53694905  0.35533950  0.53131957    -0.80700
O199        O  0.38394647  0.38735319  0.51694083    -0.79300
C200        C  0.43729204  0.32645275  0.54601767     0.83200
C201        C  0.46304827  0.37618547  0.63887844     0.82900
O202        O  0.38043693  0.37241392  0.56561103    -0.78300
C203        C  0.47204222  0.42334827  0.53423405     0.83700
O204        O  0.42349033  0.33787426  0.56498847    -0.78400
C205        C  0.55429232  0.36662625  0.54764204     0.83800
C206        C  0.46737624  0.37052415  0.44840771     0.84100
O207        O  0.48339085  0.35957027  0.46707009    -0.80800
O208        O  0.93972121  0.36587819  0.61545662    -0.78300
C209        C  0.86600621  0.37705025  0.53099334     0.82700
O210        O  0.96563119  0.32870212  0.52354268    -0.79400
O211        O  0.94937640  0.37858611  0.45106789    -0.80900
O212        O  0.98442276  0.41350090  0.54666425    -0.80700
O213        O  0.98299176  0.38449515  0.61356086    -0.79300
Zn214      Zn  0.92754949  0.36192949  0.56641451     1.55700
O215        O  0.94732318  0.41269178  0.50411894    -0.80700
Cd216      Cd  0.99038103  0.38751391  0.56140477     1.59700
Cd217      Cd  0.98644265  0.35318026  0.51245324     1.59600
O218        O  0.03988165  0.38064667  0.55139953    -0.80700
O219        O  0.95960031  0.37216430  0.53501410    -1.91200
Cd220      Cd  0.93494715  0.38625301  0.49967822     1.59900
O221        O  0.03753118  0.35484817  0.52502790    -0.80700
O222        O  0.88273955  0.38311754  0.50569947    -0.79300
C223        C  0.94006206  0.32463665  0.54185563     0.83200
C224        C  0.96216407  0.37498113  0.63039394     0.82900
O225        O  0.88078763  0.37041378  0.55675775    -0.78300
C226        C  0.96726800  0.42116973  0.52347100     0.83700
O227        O  0.92444479  0.33609092  0.55922840    -0.78400
C228        C  0.05439583  0.36734358  0.53829512     0.83800
C229        C  0.96928566  0.36667320  0.44006947     0.84100
O230        O  0.98458755  0.35616062  0.46020318    -0.80800
O231        O  0.11185855  0.63152010  0.45363314    -0.78300
C232        C  0.02396856  0.62854577  0.38669917     0.82700
O233        O  0.03204947  0.67358780  0.49672975    -0.79400
O234        O  0.95429231  0.62081818  0.47384847    -0.80900
O235        O  0.04987950  0.58859913  0.50781046    -0.80700
O236        O  0.11303399  0.61855246  0.50450312    -0.79300
Zn237      Zn  0.06451422  0.64025388  0.44814320     1.55700
O238        O  0.01012868  0.58827466  0.46782938    -0.80700
Cd239      Cd  0.06164295  0.61497933  0.51346870     1.59700
Cd240      Cd  0.01035959  0.64879554  0.50673236     1.59600
O241        O  0.04991588  0.62131922  0.56317245    -0.80700
O242        O  0.03484520  0.62980264  0.48128626    -1.91200
Cd243      Cd  0.00212486  0.61466745  0.45699893     1.59900
O244        O  0.01410359  0.64387750  0.55866331    -0.80700
O245        O  0.00420574  0.61901716  0.40476619    -0.79300
C246        C  0.05658816  0.67731120  0.47670372     0.83200
C247        C  0.12815122  0.62488118  0.47846794     0.82900
O248        O  0.04803902  0.63719920  0.40007620    -0.78300
C249        C  0.02916992  0.58029560  0.48904177     0.83700
O250        O  0.06936458  0.66578422  0.45732821    -0.78400
C251        C  0.03034766  0.63267100  0.57661459     0.83800
C252        C  0.94098652  0.63440149  0.48713593     0.84100
O253        O  0.95857389  0.64754356  0.49673368    -0.80800
O254        O  0.61350821  0.63664923  0.45460330    -0.78300
C255        C  0.53013832  0.62788650  0.38293388     0.82700
O256        O  0.52375576  0.67582036  0.48848179    -0.79400
O257        O  0.45715748  0.61973602  0.46539237    -0.80900
O258        O  0.55364862  0.59143589  0.50902812    -0.80700
O259        O  0.61340272  0.62362925  0.50549718    -0.79300
Zn260      Zn  0.56520751  0.64317180  0.44529611     1.55700
O261        O  0.51625389  0.58937107  0.46710204    -0.80700
Cd262      Cd  0.56217396  0.61850935  0.51281176     1.59700
Cd263      Cd  0.50656578  0.65029825  0.50061081     1.59600
O264        O  0.54771526  0.62584250  0.56161763    -0.80700
O265        O  0.53550842  0.63197614  0.47801049    -1.91200
Cd266      Cd  0.50659562  0.61512155  0.45317727     1.59900
O267        O  0.50991696  0.64718351  0.55290491    -0.80700
O268        O  0.51105780  0.61809263  0.40111075    -0.79300
C269        C  0.54841852  0.68049335  0.46931988     0.83200
C270        C  0.62917960  0.63041609  0.48025555     0.82900
O271        O  0.55211432  0.63792888  0.39642425    -0.78300
C272        C  0.53462154  0.58225082  0.48993027     0.83700
O273        O  0.56473603  0.66927433  0.45192866    -0.78400
C274        C  0.52654102  0.63709836  0.57284859     0.83800
C275        C  0.44060484  0.63235799  0.47843067     0.84100
O276        O  0.45530089  0.64603952  0.48995102    -0.80800
O277        O  0.10837590  0.36835066  0.05955688    -0.78300
C278        C  0.02354283  0.37294182  0.12972990     0.82700
O279        O  0.02937409  0.32627986  0.01807738    -0.79400
O280        O  0.94945520  0.37698081  0.04785314    -0.80900
O281        O  0.04312267  0.41183891  0.00862403    -0.80700
O282        O  0.10767489  0.38210400  0.00946351    -0.79300
Zn283      Zn  0.06112511  0.35955660  0.06744739     1.55700
O284        O  0.00251669  0.41069793  0.04783274    -0.80700
Cd285      Cd  0.05583360  0.38534940  0.00227662     1.59700
Cd286      Cd  0.00542370  0.35074160  0.00968168     1.59600
O287        O  0.04333239  0.37881520  0.95294938    -0.80700
O288        O  0.03038532  0.36978515  0.03469969    -1.91200
Cd289      Cd  0.99763326  0.38446177  0.05961909     1.59900
O290        O  0.00767416  0.35616506  0.95775600    -0.80700
O291        O  0.00324045  0.38177353  0.11122949    -0.79300
C292        C  0.05396656  0.32255429  0.03796038     0.83200
C293        C  0.12378895  0.37551758  0.03457925     0.82900
O294        O  0.04683477  0.36350576  0.11666828    -0.78300
C295        C  0.02127617  0.41941152  0.02747274     0.83700
O296        O  0.06603288  0.33393055  0.05809040    -0.78400
C297        C  0.02372156  0.36745471  0.93970776     0.83800
C298        C  0.93582775  0.36347804  0.03480693     0.84100
O299        O  0.95354104  0.35104504  0.02212160    -0.80800
O300        O  0.60973999  0.36815527  0.06440057    -0.78300
C301        C  0.52941057  0.37117704  0.13963919     0.82700
O302        O  0.52533852  0.32720310  0.02643304    -0.79400
O303        O  0.45032030  0.37632056  0.06505755    -0.80900
O304        O  0.53939605  0.41284253  0.01934949    -0.80700
O305        O  0.60621317  0.38492799  0.01799234    -0.79300
Zn306      Zn  0.56285982  0.35936925  0.07391416     1.55700
O307        O  0.50168591  0.41092293  0.06133049    -0.80700
Cd308      Cd  0.55413213  0.38684550  0.01158395     1.59700
Cd309      Cd  0.50430281  0.35223987  0.01775730     1.59600
O310        O  0.54249198  0.38044348  0.96181734    -0.80700
O311        O  0.53036862  0.37049190  0.04387153    -1.91200
Cd312      Cd  0.49911724  0.38442895  0.07259308     1.59900
O313        O  0.50787737  0.35735920  0.96576349    -0.80700
O314        O  0.50847737  0.38084430  0.12356047    -0.79300
C315        C  0.55072881  0.32280930  0.04470419     0.83200
C316        C  0.62367884  0.37715505  0.04081975     0.82900
O317        O  0.55149390  0.36205640  0.12399579    -0.78300
C318        C  0.51842220  0.41998830  0.03974050     0.83700
O319        O  0.56569189  0.33388852  0.06340184    -0.78400
C320        C  0.52390842  0.36878855  0.94804658     0.83800
C321        C  0.43593703  0.36410481  0.04858695     0.84100
O322        O  0.45267337  0.35338002  0.03017830    -0.80800
O323        O  0.44763259  0.63461175  0.89591535    -0.78300
C324        C  0.36564616  0.62311494  0.97430199     0.82700
O325        O  0.46034104  0.67108564  0.99518778    -0.79400
O326        O  0.44315003  0.61870269  0.06024528    -0.80900
O327        O  0.48606653  0.58695239  0.96675398    -0.80700
O328        O  0.49081420  0.61626909  0.90293003    -0.79300
Zn329      Zn  0.43032394  0.63799545  0.94424033     1.55700
O330        O  0.44337007  0.58627704  0.00384436    -0.80700
Cd331      Cd  0.49281013  0.61306194  0.95495493     1.59700
Cd332      Cd  0.48329706  0.64661893  0.00480662     1.59600
O333        O  0.54061035  0.62017879  0.96914709    -0.80700
O334        O  0.45921932  0.62782644  0.97856867    -1.91200
Cd335      Cd  0.43162651  0.61284623  0.01016623     1.59900
O336        O  0.53540369  0.64619719  0.99430611    -0.80700
O337        O  0.38027039  0.61716447  0.00090681    -0.79300
C338        C  0.43705117  0.67489614  0.97387075     0.83200
C339        C  0.47184621  0.62550575  0.88371554     0.82900
O340        O  0.38250869  0.62932578  0.94930257    -0.78300
C341        C  0.46598392  0.57848736  0.98625082     0.83700
O342        O  0.42569364  0.66352011  0.95337238    -0.78400
C343        C  0.55367145  0.63377741  0.98242390     0.83800
C344        C  0.46282615  0.62982607  0.07412526     0.84100
O345        O  0.47930364  0.64114742  0.05656496    -0.80800
O346        O  0.94014896  0.63625560  0.90013784    -0.78300
C347        C  0.86550839  0.62138087  0.98235092     0.82700
O348        O  0.95925015  0.67266554  0.99754851    -0.79400
O349        O  0.94603870  0.61843986  0.06260600    -0.80900
O350        O  0.98813404  0.58844575  0.96373541    -0.80700
O351        O  0.98608889  0.61948188  0.90286859    -0.79300
Zn352      Zn  0.92644614  0.63902370  0.94957608     1.55700
O353        O  0.94960916  0.58628565  0.00489854    -0.80700
Cd354      Cd  0.99166553  0.61515903  0.95425270     1.59700
Cd355      Cd  0.98203361  0.64797210  0.00748545     1.59600
O356        O  0.03955214  0.62309242  0.96635836    -0.80700
O357        O  0.95847363  0.62885091  0.98112976    -1.91200
Cd358      Cd  0.93473157  0.61223758  0.01282221     1.59900
O359        O  0.03440697  0.64729851  0.99759509    -0.80700
O360        O  0.88274837  0.61416959  0.00601214    -0.79300
C361        C  0.93433215  0.67619411  0.97793763     0.83200
C362        C  0.96456268  0.62825365  0.88569539     0.82900
O363        O  0.87964376  0.62980942  0.95809940    -0.78300
C364        C  0.97082146  0.57923756  0.98464310     0.83700
O365        O  0.92155079  0.66449717  0.95903844    -0.78400
C366        C  0.05262490  0.63588907  0.98230165     0.83800
C367        C  0.96268194  0.63073550  0.07674510     0.84100
O368        O  0.97704380  0.64290180  0.05940488    -0.80800
C369        C  0.59113445  0.63470843  0.98395157    -0.03000
C370        C  0.60807177  0.64997779  0.99437173    -0.05600
C371        C  0.64356304  0.65043666  0.99520940    -0.20700
C372        C  0.66262485  0.63556384  0.98630189     0.25000
C373        C  0.64564470  0.62036605  0.97577288    -0.18300
C374        C  0.61042751  0.61994809  0.97464123    -0.08200
C375        C  0.70014539  0.63634509  0.98633782    -0.18500
C376        C  0.71945208  0.62205497  0.99245135    -0.23300
C377        C  0.75686305  0.62213328  0.98969761     0.27100
C378        C  0.77577661  0.61030999  0.00955671    -0.20100
C379        C  0.81109051  0.60980173  0.00692780    -0.09700
C380        C  0.82807411  0.62086622  0.98378473    -0.10300
C381        C  0.80897495  0.63237085  0.96326563    -0.03200
C382        C  0.77377649  0.63304617  0.96625250    -0.18300
H383        H  0.59395851  0.66157592  0.00156628     0.10800
H384        H  0.65616291  0.66237466  0.00301119     0.10800
H385        H  0.65950819  0.60886663  0.96762549     0.10500
H386        H  0.59833304  0.60796877  0.96632172     0.11600
H387        H  0.71205498  0.64901657  0.98176496     0.11700
H388        H  0.70750281  0.60985223  0.00052535     0.13600
H389        H  0.76320139  0.60160128  0.02746055     0.10100
H390        H  0.82507917  0.60080514  0.02307347     0.12200
H391        H  0.82126381  0.64110642  0.94522062     0.08800
H392        H  0.75986057  0.64191345  0.94980649     0.11600
C393        C  0.32816537  0.62372848  0.97258768    -0.03000
C394        C  0.31205139  0.62706379  0.94144471    -0.05600
C395        C  0.27696973  0.62911279  0.93987287    -0.20700
C396        C  0.25712076  0.62817965  0.96938816     0.25000
C397        C  0.27306115  0.62459045  0.00058816    -0.18300
C398        C  0.30825438  0.62234611  0.00212626    -0.08200
C399        C  0.21983990  0.63011297  0.96609157    -0.18500
C400        C  0.19911447  0.63519480  0.99142512    -0.23300
C401        C  0.16167378  0.63614965  0.98749191     0.27100
C402        C  0.14260698  0.64731450  0.00842579    -0.20100
C403        C  0.10716047  0.64779852  0.00617036    -0.09700
C404        C  0.09013105  0.63691281  0.98320661    -0.10300
C405        C  0.10934296  0.62585834  0.96215673    -0.03200
C406        C  0.14453657  0.62541615  0.96433854    -0.18300
H407        H  0.32660082  0.62820931  0.91820281     0.10800
H408        H  0.26530922  0.63164971  0.91547237     0.10800
H409        H  0.25847145  0.62327721  0.02373464     0.10500
H410        H  0.31993261  0.61986918  0.02652263     0.11600
H411        H  0.20930081  0.62784720  0.94111540     0.11700
H412        H  0.20978512  0.63919145  0.01549482     0.13600
H413        H  0.15516740  0.65559275  0.02671675     0.10100
H414        H  0.09309555  0.65632972  0.02295060     0.12200
H415        H  0.09713592  0.61719897  0.94429055     0.08800
H416        H  0.15803392  0.61618636  0.94855596     0.11600
C417        C  0.47009272  0.55914683  0.98892919    -0.03000
C418        C  0.49207785  0.55038685  0.96661162    -0.05600
C419        C  0.49828472  0.53241977  0.97037344    -0.20700
C420        C  0.48305889  0.52275586  0.99672484     0.25000
C421        C  0.46017339  0.53134518  0.01850850    -0.18300
C422        C  0.45376525  0.54937472  0.01460470    -0.08200
C423        C  0.49159896  0.50378290  0.00007967    -0.18500
C424        C  0.48866535  0.49448744  0.02917884    -0.23300
C425        C  0.49791202  0.47557941  0.03206227     0.27100
C426        C  0.48182684  0.46519904  0.05685167    -0.20100
C427        C  0.48892126  0.44724436  0.05970229    -0.09700
C428        C  0.51260248  0.43926056  0.03798641    -0.10300
C429        C  0.52971002  0.44979636  0.01400579    -0.03200
C430        C  0.52253116  0.46776821  0.01110872    -0.18300
H431        H  0.50491500  0.55746071  0.94638182     0.10800
H432        H  0.51567500  0.52611008  0.95299726     0.10800
H433        H  0.44701821  0.52424532  0.03843312     0.10500
H434        H  0.43654131  0.55571391  0.03207796     0.11600
H435        H  0.50157028  0.49740709  0.97764546     0.11700
H436        H  0.47845877  0.50071034  0.05165620     0.13600
H437        H  0.46313272  0.47092867  0.07361712     0.10100
H438        H  0.47543317  0.43957472  0.07865448     0.12200
H439        H  0.54842309  0.44413020  0.99720627     0.08800
H440        H  0.53650115  0.47546629  0.99260834     0.11600
C441        C  0.89833522  0.36284554  0.03431968    -0.03000
C442        C  0.88046980  0.34707004  0.02992981    -0.05600
C443        C  0.84493741  0.34700418  0.03073390    -0.20700
C444        C  0.82674186  0.36272156  0.03521579     0.25000
C445        C  0.84474462  0.37845364  0.03949347    -0.18300
C446        C  0.87998544  0.37849981  0.03898723    -0.08200
C447        C  0.78917400  0.36232347  0.03715080    -0.18500
C448        C  0.76974057  0.37635989  0.02924757    -0.23300
C449        C  0.73235817  0.37654834  0.03297977     0.27100
C450        C  0.71321499  0.38806203  0.01264504    -0.20100
C451        C  0.67791798  0.38857810  0.01551548    -0.09700
C452        C  0.66112672  0.37777964  0.03926075    -0.10300
C453        C  0.68045728  0.36669303  0.06040919    -0.03200
C454        C  0.71565251  0.36606668  0.05730985    -0.18300
H455        H  0.89390889  0.33480019  0.02648622     0.10800
H456        H  0.83161718  0.33466969  0.02779760     0.10800
H457        H  0.83180437  0.39073759  0.04416086     0.10500
H458        H  0.89290329  0.39091114  0.04243429     0.11600
H459        H  0.77729024  0.35000254  0.04456010     0.11700
H460        H  0.78142990  0.38806226  0.01847517     0.13600
H461        H  0.72558130  0.39647505  0.99407922     0.10100
H462        H  0.66378880  0.39729914  0.99893890     0.12200
H463        H  0.66836212  0.35823724  0.07907023     0.08800
H464        H  0.72966198  0.35750650  0.07425466     0.11600
C465        C  0.16133800  0.37512237  0.03424983    -0.03000
C466        C  0.17986310  0.38141974  0.00616558    -0.05600
C467        C  0.21505632  0.37924018  0.00470580    -0.20700
C468        C  0.23248334  0.37085594  0.03131817     0.25000
C469        C  0.21393105  0.36468224  0.05950828    -0.18300
C470        C  0.17889198  0.36688510  0.06100452    -0.08200
C471        C  0.26972302  0.36824795  0.02847031    -0.18500
C472        C  0.28990606  0.36618450  0.05569314    -0.23300
C473        C  0.32725709  0.36450335  0.05345392     0.27100
C474        C  0.34668159  0.37062623  0.08056429    -0.20100
C475        C  0.38192489  0.37000934  0.07919833    -0.09700
C476        C  0.39863204  0.36289973  0.05093510    -0.10300
C477        C  0.37925440  0.35597320  0.02438875    -0.03200
C478        C  0.34379705  0.35685387  0.02552501    -0.18300
H479        H  0.16711505  0.38766814  0.98497855     0.10800
H480        H  0.22870020  0.38402504  0.98260881     0.10800
H481        H  0.22609585  0.35764121  0.08006351     0.10500
H482        H  0.16544554  0.36163864  0.08283049     0.11600
H483        H  0.28098598  0.36901705  0.00333764     0.11700
H484        H  0.27914066  0.36717744  0.08095772     0.13600
H485        H  0.33455070  0.37635834  0.10253763     0.10100
H486        H  0.39616943  0.37531618  0.10019147     0.12200
H487        H  0.39149886  0.35041092  0.00233477     0.08800
H488        H  0.32946187  0.35154410  0.00463555     0.11600
C489        C  0.01686817  0.43878055  0.02569503    -0.03000
C490        C  0.99663986  0.44734229  0.04990208    -0.05600
C491        C  0.99097930  0.46543551  0.04774308    -0.20700
C492        C  0.00490839  0.47542684  0.02111630     0.25000
C493        C  0.02582401  0.46699368  0.99723624    -0.18300
C494        C  0.03175830  0.44884757  0.99956328    -0.08200
C495        C  0.99736917  0.49458107  0.01971430    -0.18500
C496        C  0.99789242  0.50425846  0.99091548    -0.23300
C497        C  0.98958246  0.52335656  0.98961558     0.27100
C498        C  0.00221491  0.53354296  0.96257285    -0.20100
C499        C  0.99578022  0.55160777  0.96073077    -0.09700
C500        C  0.97610289  0.55990606  0.98571897    -0.10300
C501        C  0.96243034  0.54961164  0.01218435    -0.03200
C502        C  0.96904346  0.53154632  0.01413299    -0.18300
H503        H  0.98497124  0.44004280  0.07054240     0.10800
H504        H  0.97510721  0.47161365  0.06668225     0.10800
H505        H  0.03793166  0.47433756  0.97696620     0.10500
H506        H  0.04763765  0.44267313  0.98065818     0.11600
H507        H  0.99018845  0.50072015  0.04341542     0.11700
H508        H  0.00516639  0.49811286  0.96723571     0.13600
H509        H  0.01767234  0.52755231  0.94307857     0.10100
H510        H  0.00644807  0.55909689  0.93980001     0.12200
H511        H  0.94693327  0.55555044  0.03168086     0.08800
H512        H  0.95769427  0.52409578  0.03468938     0.11600
C513        C  0.46734790  0.62924213  0.11159811    -0.03000
C514        C  0.44919551  0.61709710  0.13167973    -0.05600
C515        C  0.45455624  0.61597664  0.16671511    -0.20700
C516        C  0.47840952  0.62680467  0.18260918     0.25000
C517        C  0.49617850  0.63919850  0.16264856    -0.18300
C518        C  0.49073243  0.64036470  0.12758975    -0.08200
C519        C  0.48305709  0.62510519  0.22006180    -0.18500
C520        C  0.51112518  0.63035860  0.23663093    -0.23300
C521        C  0.51574049  0.62900705  0.27417298     0.27100
C522        C  0.54114296  0.63916855  0.28935704    -0.20100
C523        C  0.54616577  0.63865894  0.32450000    -0.09700
C524        C  0.52602672  0.62783609  0.34541957    -0.10300
C525        C  0.50112545  0.61732020  0.33018160    -0.03200
C526        C  0.49607587  0.61784315  0.29503387    -0.18300
H527        H  0.43094578  0.60833521  0.12031088     0.10800
H528        H  0.44023915  0.60643987  0.18143485     0.10800
H529        H  0.51394577  0.64821873  0.17391506     0.10500
H530        H  0.50504162  0.64993934  0.11297954     0.11600
H531        H  0.46243739  0.61910076  0.23416499     0.11700
H532        H  0.53174520  0.63623497  0.22228972     0.13600
H533        H  0.55691613  0.64776097  0.27398829     0.10100
H534        H  0.56564027  0.64689448  0.33529573     0.12200
H535        H  0.48530083  0.60871818  0.34545668     0.08800
H536        H  0.47696461  0.60933413  0.28453561     0.11600
C537        C  0.52016482  0.63818255  0.61000055    -0.03000
C538        C  0.49366070  0.64866508  0.62255265    -0.05600
C539        C  0.48617436  0.64892244  0.65725746    -0.20700
C540        C  0.50477832  0.63865624  0.68035478     0.25000
C541        C  0.53198940  0.62854789  0.66798406    -0.18300
C542        C  0.53946394  0.62826683  0.63321069    -0.08200
C543        C  0.49533670  0.63916773  0.71702340    -0.18500
C544        C  0.50289268  0.62623393  0.73939635    -0.23300
C545        C  0.49382405  0.62651685  0.77616527     0.27100
C546        C  0.51154744  0.61530994  0.79831204    -0.20100
C547        C  0.50424086  0.61495642  0.83301053    -0.09700
C548        C  0.47867741  0.62570551  0.84657921    -0.10300
C549        C  0.46043092  0.63674605  0.82440068    -0.03200
C550        C  0.46786500  0.63715239  0.78956726    -0.18300
H551        H  0.47824372  0.65648772  0.60548383     0.10800
H552        H  0.46533641  0.65697144  0.66603496     0.10800
H553        H  0.54783555  0.62095440  0.68496515     0.10500
H554        H  0.56028739  0.62020123  0.62449859     0.11600
H555        H  0.48109116  0.65051679  0.72544311     0.11700
H556        H  0.51689213  0.61485112  0.73071309     0.13600
H557        H  0.53145203  0.60687087  0.78876497     0.10100
H558        H  0.51877873  0.60623996  0.84923385     0.12200
H559        H  0.44046345  0.64512619  0.83396384     0.08800
H560        H  0.45286471  0.64561663  0.77336584     0.11600
C561        C  0.90409628  0.63434343  0.49245924    -0.03000
C562        C  0.88813889  0.61865126  0.50249835    -0.05600
C563        C  0.85315572  0.61803578  0.50696010    -0.20700
C564        C  0.83326988  0.63295375  0.50060643     0.25000
C565        C  0.84928766  0.64884031  0.49126873    -0.18300
C566        C  0.88454820  0.64954419  0.48749707    -0.08200
C567        C  0.79600135  0.63123070  0.50364332    -0.18500
C568        C  0.77429262  0.64078818  0.48482169    -0.23300
C569        C  0.73721984  0.63754409  0.48441309     0.27100
C570        C  0.71879457  0.64295785  0.45584280    -0.20100
C571        C  0.68393914  0.64015181  0.45412645    -0.09700
C572        C  0.66655161  0.63197619  0.48115994    -0.10300
C573        C  0.68495022  0.62657059  0.50987317    -0.03200
C574        C  0.71990444  0.62937214  0.51157137    -0.18300
H575        H  0.90282114  0.60682719  0.50701072     0.10800
H576        H  0.84148536  0.60572027  0.51454386     0.10800
H577        H  0.83474519  0.66071738  0.48708142     0.10500
H578        H  0.89644372  0.66180687  0.47999151     0.11600
H579        H  0.78649853  0.62049762  0.51927462     0.11700
H580        H  0.78422442  0.65037431  0.46680927     0.13600
H581        H  0.73144774  0.64934797  0.43465931     0.10100
H582        H  0.67055732  0.64464495  0.43173600     0.12200
H583        H  0.67225499  0.62048989  0.53134577     0.08800
H584        H  0.73298750  0.62546708  0.53448269     0.11600
C585        C  0.40339125  0.63044146  0.48085885    -0.03000
C586        C  0.38866863  0.61383561  0.47563127    -0.05600
C587        C  0.35385246  0.61145072  0.47884365    -0.20700
C588        C  0.33279278  0.62563183  0.48671967     0.25000
C589        C  0.34729232  0.64228916  0.49208898    -0.18300
C590        C  0.38237000  0.64464936  0.48932934    -0.08200
C591        C  0.29591447  0.62246626  0.48938862    -0.18500
C592        C  0.27296791  0.63461263  0.48026659    -0.23300
C593        C  0.23619090  0.63094971  0.47950373     0.27100
C594        C  0.21641001  0.63978524  0.45540073    -0.20100
C595        C  0.18155368  0.63711530  0.45421208    -0.09700
C596        C  0.16552735  0.62579215  0.47763602    -0.10300
C597        C  0.18533657  0.61682974  0.50177083    -0.03200
C598        C  0.22044133  0.61931830  0.50261547    -0.18300
H599        H  0.40411729  0.60253333  0.46945263     0.10800
H600        H  0.34327425  0.59850120  0.47477137     0.10800
H601        H  0.33168264  0.65340615  0.49897718     0.10500
H602        H  0.39299985  0.65753860  0.49380078     0.11600
H603        H  0.28756416  0.60926581  0.49600870     0.11700
H604        H  0.28152018  0.64720406  0.47024148     0.13600
H605        H  0.22798071  0.64883873  0.43744070     0.10100
H606        H  0.16702558  0.64440991  0.43555814     0.12200
H607        H  0.17365386  0.60817067  0.52034867     0.08800
H608        H  0.23498750  0.61257505  0.52197784     0.11600
C609        C  0.96580849  0.63059975  0.11434462    -0.03000
C610        C  0.95215951  0.61663635  0.13357799    -0.05600
C611        C  0.95598622  0.61602875  0.16879113    -0.20700
C612        C  0.97377993  0.62924071  0.18578337     0.25000
C613        C  0.98691487  0.64344982  0.16674180    -0.18300
C614        C  0.98299862  0.64409203  0.13139528    -0.08200
C615        C  0.97729206  0.62774543  0.22332226    -0.18500
C616        C  0.00259722  0.63517039  0.24111082    -0.23300
C617        C  0.00725690  0.63302005  0.27855726     0.27100
C618        C  0.03084463  0.64384246  0.29488369    -0.20100
C619        C  0.03648598  0.64228930  0.32981654    -0.09700
C620        C  0.01862250  0.62983813  0.34944329    -0.10300
C621        C  0.99525611  0.61886580  0.33316500    -0.03200
C622        C  0.98974263  0.62034291  0.29817817    -0.18300
H623        H  0.93871589  0.60602456  0.12140684     0.10800
H624        H  0.94537161  0.60501160  0.18280247     0.10800
H625        H  0.99984674  0.65418853  0.17897637     0.10500
H626        H  0.99353468  0.65513298  0.11742643     0.11600
H627        H  0.95873524  0.61961099  0.23623584     0.11700
H628        H  0.02121728  0.64311094  0.22770724     0.13600
H629        H  0.04492078  0.65363428  0.28055989     0.10100
H630        H  0.05466602  0.65098221  0.34148880     0.12200
H631        H  0.98128406  0.60902912  0.34745519     0.08800
H632        H  0.97204104  0.61132130  0.28691221     0.11600
C633        C  0.96861113  0.62930101  0.84825948    -0.03000
C634        C  0.94684005  0.63966408  0.82824158    -0.05600
C635        C  0.95164592  0.64094965  0.79307447    -0.20700
C636        C  0.97836207  0.63200700  0.77708605     0.25000
C637        C  0.99972689  0.62136098  0.79713305    -0.18300
C638        C  0.99498688  0.62012060  0.83221019    -0.08200
C639        C  0.98246911  0.63378413  0.73953958    -0.18500
C640        C  0.01106960  0.62949954  0.72267486    -0.23300
C641        C  0.01520093  0.63080217  0.68516503     0.27100
C642        C  0.04043485  0.62060997  0.66968803    -0.20100
C643        C  0.04555117  0.62134838  0.63460535    -0.09700
C644        C  0.02577794  0.63249568  0.61405651    -0.10300
C645        C  0.00088165  0.64297180  0.62957707    -0.03200
C646        C  0.99561409  0.64214701  0.66472848    -0.18300
H647        H  0.92622932  0.64688978  0.83975088     0.10800
H648        H  0.93456518  0.64910274  0.77832131     0.10800
H649        H  0.01988267  0.61369344  0.78607191     0.10500
H650        H  0.01208063  0.61188891  0.84677046     0.11600
H651        H  0.96096767  0.63886526  0.72548600     0.11700
H652        H  0.03263324  0.62443868  0.73658994     0.13600
H653        H  0.05607929  0.61186367  0.68479726     0.10100
H654        H  0.06498366  0.61311429  0.62358379     0.12200
H655        H  0.98523865  0.65173236  0.61452532     0.08800
H656        H  0.97657799  0.65060645  0.67568922     0.11600
C657        C  0.01941617  0.37382556  0.16711823    -0.03000
C658        C  0.99834214  0.38675981  0.18125627    -0.05600
C659        C  0.99305473  0.38747183  0.21621775    -0.20700
C660        C  0.00814796  0.37511842  0.23799224     0.25000
C661        C  0.02988699  0.36235260  0.22411856    -0.18300
C662        C  0.03556927  0.36177144  0.18897553    -0.08200
C663        C  0.00075749  0.37631300  0.27489794    -0.18500
C664        C  0.00078035  0.36238786  0.29628652    -0.23300
C665        C  0.99137351  0.36359910  0.33286816     0.27100
C666        C  0.00262664  0.35045383  0.35536234    -0.20100
C667        C  0.99502391  0.35128523  0.39001436    -0.09700
C668        C  0.97557999  0.36521485  0.40299646    -0.10300
C669        C  0.96327568  0.37804530  0.38030810    -0.03200
C670        C  0.97097915  0.37724482  0.34567512    -0.18300
H671        H  0.98576424  0.39637740  0.16526052     0.10800
H672        H  0.97651553  0.39754740  0.22625763     0.10800
H673        H  0.04275616  0.35294014  0.24028195     0.10500
H674        H  0.05217024  0.35174845  0.17889184     0.11600
H675        H  0.99360924  0.38916126  0.28423006     0.11700
H676        H  0.00808759  0.34956592  0.28684633     0.13600
H677        H  0.01789259  0.33964640  0.34618539     0.10100
H678        H  0.00468805  0.34107717  0.40668596     0.12200
H679        H  0.94797715  0.38886086  0.38935522     0.08800
H680        H  0.96054502  0.38727121  0.32915320     0.11600
C681        C  0.01913310  0.36768725  0.90231166    -0.03000
C682        C  0.04075541  0.37779752  0.88158378    -0.05600
C683        C  0.03580386  0.37871461  0.84653884    -0.20700
C684        C  0.00890211  0.36975434  0.83120925     0.25000
C685        C  0.98751228  0.35934237  0.85183447    -0.18300
C686        C  0.99263965  0.35831929  0.88699317    -0.08200
C687        C  0.00476342  0.37159294  0.79373461    -0.18500
C688        C  0.97622212  0.36770638  0.77662825    -0.23300
C689        C  0.97264614  0.37023108  0.73922055     0.27100
C690        C  0.94828932  0.36036134  0.72187633    -0.20100
C691        C  0.94441182  0.36215456  0.68672296    -0.09700
C692        C  0.96470045  0.37398348  0.66801117    -0.10300
C693        C  0.98839627  0.38425276  0.68550219    -0.03200
C694        C  0.99224110  0.38247188  0.72066934    -0.18300
H695        H  0.06154538  0.38509367  0.89245053     0.10800
H696        H  0.05287832  0.38669919  0.83135549     0.10800
H697        H  0.96701671  0.35182804  0.84111482     0.10500
H698        H  0.97557420  0.35036556  0.90222808     0.11600
H699        H  0.02635308  0.37674654  0.77981553     0.11700
H700        H  0.95463706  0.36226755  0.79011263     0.13600
H701        H  0.93255323  0.35100117  0.73550375     0.10100
H702        H  0.92584227  0.35404370  0.67414633     0.12200
H703        H  0.00417967  0.39362348  0.67198235     0.08800
H704        H  0.01034886  0.39086840  0.73311846     0.11600
C705        C  0.97146612  0.44039237  0.51830060    -0.03000
C706        C  0.95307384  0.44940801  0.49310912    -0.05600
C707        C  0.95842789  0.46735692  0.48720986    -0.20700
C708        C  0.98242530  0.47669657  0.50609722     0.25000
C709        C  0.00033207  0.46774540  0.53181126    -0.18300
C710        C  0.99496377  0.44981680  0.53772546    -0.08200
C711        C  0.98716883  0.49578350  0.49880485    -0.18500
C712        C  0.01459519  0.50503950  0.50834710    -0.23300
C713        C  0.01848771  0.52422822  0.50203359     0.27100
C714        C  0.03922492  0.53392928  0.52380727    -0.20100
C715        C  0.04311969  0.55206351  0.51929035    -0.09700
C716        C  0.02652467  0.56091284  0.49265093    -0.10300
C717        C  0.00642842  0.55112571  0.47029160    -0.03200
C718        C  0.00254406  0.53297221  0.47482132    -0.18300
H719        H  0.93472545  0.44257597  0.47771208     0.10800
H720        H  0.94400117  0.47393729  0.46751174     0.10800
H721        H  0.01818543  0.47446436  0.54784834     0.10500
H722        H  0.00944231  0.44332008  0.55746950     0.11600
H723        H  0.96706120  0.50238434  0.48498365     0.11700
H724        H  0.03475685  0.49859834  0.52230383     0.13600
H725        H  0.05200481  0.52749512  0.54479295     0.10100
H726        H  0.05874778  0.55918347  0.53702105     0.12200
H727        H  0.99357799  0.55750143  0.44930443     0.08800
H728        H  0.98733028  0.52586978  0.45676291     0.11600
C729        C  0.59149671  0.36499120  0.54967079    -0.03000
C730        C  0.60857596  0.37241095  0.57724672    -0.05600
C731        C  0.64381413  0.37280724  0.57805156    -0.20700
C732        C  0.66284850  0.36615319  0.55101116     0.25000
C733        C  0.64593205  0.35809419  0.52386895    -0.18300
C734        C  0.61044707  0.35742511  0.52333357    -0.08200
C735        C  0.70018577  0.36781929  0.55254875    -0.18500
C736        C  0.72026961  0.36924650  0.52498412    -0.23300
C737        C  0.75748506  0.37196610  0.52743399     0.27100
C738        C  0.77508038  0.37964497  0.50003310    -0.20100
C739        C  0.81025549  0.38198176  0.50141486    -0.09700
C740        C  0.82849895  0.37657811  0.53024197    -0.10300
C741        C  0.81074197  0.36906003  0.55771989    -0.03200
C742        C  0.77583303  0.36664414  0.55625781    -0.18300
H743        H  0.59461329  0.37817766  0.59806486     0.10800
H744        H  0.65625039  0.37883718  0.59946560     0.10800
H745        H  0.65997582  0.35236212  0.50310916     0.10500
H746        H  0.59785488  0.35159398  0.50182168     0.11600
H747        H  0.71101873  0.36943492  0.57757637     0.11700
H748        H  0.70897650  0.36940559  0.49990694     0.13600
H749        H  0.76159264  0.38375609  0.47743247     0.10100
H750        H  0.82320535  0.38764528  0.47967815     0.12200
H751        H  0.82394434  0.36450732  0.58017660     0.08800
H752        H  0.76364668  0.36010038  0.57746244     0.11600
C753        C  0.32895261  0.38103813  0.53916524    -0.03000
C754        C  0.31239998  0.39071116  0.51356581    -0.05600
C755        C  0.27709736  0.39025605  0.51082072    -0.20700
C756        C  0.25769969  0.37985706  0.53309957     0.25000
C757        C  0.27412452  0.37035172  0.55896307    -0.18300
C758        C  0.30934117  0.37098668  0.56202209    -0.08200
C759        C  0.22030285  0.37990229  0.53004116    -0.18500
C760        C  0.20099796  0.36582996  0.53783100    -0.23300
C761        C  0.16346596  0.36642210  0.53699842     0.27100
C762        C  0.14507443  0.35120566  0.52913774    -0.20100
C763        C  0.10959511  0.35141447  0.52928670    -0.09700
C764        C  0.09191204  0.36677282  0.53808078    -0.10300
C765        C  0.11046923  0.38191169  0.54633911    -0.03200
C766        C  0.14577853  0.38175888  0.54572962    -0.18300
H767        H  0.32672156  0.39855812  0.49552304     0.10800
H768        H  0.26491585  0.39785416  0.49094171     0.10800
H769        H  0.25977033  0.36262436  0.57715894     0.10500
H770        H  0.32122855  0.36337116  0.58204195     0.11600
H771        H  0.20842678  0.39175894  0.52013684     0.11700
H772        H  0.21300022  0.35339737  0.54431199     0.13600
H773        H  0.15820063  0.33918088  0.52266041     0.10100
H774        H  0.09604797  0.33953753  0.52283413     0.12200
H775        H  0.09770501  0.39397455  0.55322445     0.08800
H776        H  0.15917284  0.39356655  0.55286680     0.11600
C777        C  0.52715759  0.37035117  0.17721809    -0.03000
C778        C  0.54624297  0.35812907  0.19611600    -0.05600
C779        C  0.54222076  0.35681386  0.23138918    -0.20700
C780        C  0.51891254  0.36756596  0.24844904     0.25000
C781        C  0.50070872  0.38019074  0.22963565    -0.18300
C782        C  0.50467202  0.38148870  0.19450413    -0.08200
C783        C  0.51487327  0.36568960  0.28587521    -0.18500
C784        C  0.48625125  0.37025978  0.30239561    -0.23300
C785        C  0.48180768  0.36954436  0.33990443     0.27100
C786        C  0.45545819  0.37939113  0.35436750    -0.20100
C787        C  0.45061465  0.37962580  0.38949109    -0.09700
C788        C  0.47179876  0.36980828  0.41105961    -0.10300
C789        C  0.49762884  0.35954786  0.39659223    -0.03200
C790        C  0.50262972  0.35940733  0.36142298    -0.18300
H791        H  0.56386910  0.34939214  0.18361580     0.10800
H792        H  0.55694137  0.34716031  0.24532937     0.10800
H793        H  0.48362951  0.38927493  0.24188241     0.10500
H794        H  0.48992036  0.39123278  0.18085132     0.11600
H795        H  0.53616250  0.36033197  0.29983678     0.11700
H796        H  0.46496581  0.37526900  0.28790795     0.13600
H797        H  0.43881436  0.38718615  0.33843139     0.10100
H798        H  0.43030047  0.38755366  0.39974200     0.12200
H799        H  0.51428023  0.35174763  0.41248920     0.08800
H800        H  0.52259667  0.35122277  0.35140975     0.11600
C801        C  0.46592779  0.37530243  0.67648699    -0.03000
C802        C  0.44499041  0.36402444  0.69568192    -0.05600
C803        C  0.44932542  0.36227708  0.73079596    -0.20700
C804        C  0.47485057  0.37160505  0.74759890     0.25000
C805        C  0.49506964  0.38336446  0.72858929    -0.18300
C806        C  0.49071054  0.38513426  0.69348112    -0.08200
C807        C  0.47900728  0.36899359  0.78492960    -0.18500
C808        C  0.50804612  0.37234743  0.80162071    -0.23300
C809        C  0.51203652  0.37050227  0.83907127     0.27100
C810        C  0.53678117  0.38068209  0.85512360    -0.20100
C811        C  0.54084334  0.37995320  0.89032553    -0.09700
C812        C  0.52056143  0.36878759  0.91044553    -0.10300
C813        C  0.49660719  0.35805090  0.89427197    -0.03200
C814        C  0.49232634  0.35890739  0.85897354    -0.18300
H815        H  0.42555000  0.35630355  0.68351090     0.10800
H816        H  0.43305582  0.35332674  0.74481112     0.10800
H817        H  0.51411960  0.39135987  0.74062126     0.10500
H818        H  0.50704706  0.39409938  0.67960123     0.11600
H819        H  0.45732205  0.36397851  0.79891418     0.11700
H820        H  0.52976553  0.37729214  0.78762003     0.13600
H821        H  0.55260723  0.38955340  0.84041295     0.10100
H822        H  0.55977005  0.38828152  0.90179933     0.12200
H823        H  0.48079859  0.34916151  0.90893438     0.08800
H824        H  0.47377346  0.35040060  0.84745525     0.11600
C825        C  0.47695744  0.44261873  0.52960749    -0.03000
C826        C  0.45541245  0.45232775  0.50817049    -0.05600
C827        C  0.46064670  0.47031303  0.50269453    -0.20700
C828        C  0.48774201  0.47907863  0.51811478     0.25000
C829        C  0.50900827  0.46946786  0.54012283    -0.18300
C830        C  0.50364062  0.45145059  0.54577523    -0.08200
C831        C  0.49220617  0.49822948  0.51089173    -0.18500
C832        C  0.52127612  0.50719554  0.51567947    -0.23300
C833        C  0.52504603  0.52630945  0.50771245     0.27100
C834        C  0.54963325  0.53610607  0.52494880    -0.20100
C835        C  0.55328343  0.55419253  0.51884955    -0.09700
C836        C  0.53269425  0.56286318  0.49494835    -0.10300
C837        C  0.50893387  0.55290634  0.47679224    -0.03200
C838        C  0.50517380  0.53487709  0.48302252    -0.18300
H839        H  0.43449536  0.44601733  0.49543135     0.10800
H840        H  0.44364172  0.47737600  0.48590517     0.10800
H841        H  0.52956592  0.47575476  0.55336427     0.10500
H842        H  0.52061192  0.44440725  0.56260360     0.11600
H843        H  0.47042429  0.50511205  0.50059548     0.11700
H844        H  0.54309300  0.50053147  0.52637316     0.13600
H845        H  0.56561924  0.52980744  0.54374262     0.10100
H846        H  0.57195443  0.56141268  0.53316231     0.12200
H847        H  0.49281109  0.55908641  0.45798555     0.08800
H848        H  0.48686300  0.52773221  0.46818364     0.11600
C849        C  0.56471804  0.30471702  0.04362655    -0.03000
C850        C  0.54621115  0.29061221  0.03036316    -0.05600
C851        C  0.56050986  0.27373716  0.02920420    -0.20700
C852        C  0.59378238  0.27075508  0.04047062     0.25000
C853        C  0.61220996  0.28487142  0.05376194    -0.18300
C854        C  0.59782658  0.30159889  0.05539092    -0.08200
C855        C  0.60795523  0.25265812  0.04008498    -0.18500
C856        C  0.64139488  0.24922815  0.03756229    -0.23300
C857        C  0.65542975  0.23113009  0.03982783     0.27100
C858        C  0.68542889  0.22693748  0.02244026    -0.20100
C859        C  0.69890344  0.20988718  0.02419311    -0.09700
C860        C  0.68295573  0.19682034  0.04400619    -0.10300
C861        C  0.65360756  0.20128232  0.06233137    -0.03200
C862        C  0.63998958  0.21818659  0.06023081    -0.18300
H863        H  0.52067306  0.29258869  0.02117980     0.10800
H864        H  0.54564661  0.26299746  0.01926377     0.10800
H865        H  0.63749336  0.28298251  0.06364249     0.10500
H866        H  0.61289137  0.31216757  0.06569525     0.11600
H867        H  0.59011364  0.24180953  0.04127326     0.11700
H868        H  0.65903277  0.25991947  0.03279368     0.13600
H869        H  0.69807315  0.23678181  0.00695021     0.10100
H870        H  0.72154361  0.20689737  0.00979944     0.12200
H871        H  0.64064722  0.19159369  0.07790828     0.08800
H872        H  0.61752415  0.22112254  0.07491157     0.11600
C873        C  0.84268950  0.13573811  0.04247540    -0.03000
C874        C  0.86018031  0.15069470  0.03065486    -0.05600
C875        C  0.89564282  0.15110912  0.03094982    -0.20700
C876        C  0.91420050  0.13649263  0.04245260     0.25000
C877        C  0.89670485  0.12173313  0.05501506    -0.18300
C878        C  0.86141747  0.12137174  0.05504491    -0.08200
C879        C  0.95173461  0.13698694  0.04195688    -0.18500
C880        C  0.97052246  0.12247029  0.03667859    -0.23300
C881        C  0.00804553  0.12241998  0.03706114     0.27100
C882        C  0.02554999  0.11000964  0.01754430    -0.20100
C883        C  0.06093659  0.10933011  0.01793102    -0.09700
C884        C  0.07947196  0.12079413  0.03853799    -0.10300
C885        C  0.06186272  0.13301007  0.05856157    -0.03200
C886        C  0.02653725  0.13386984  0.05775016    -0.18300
H887        H  0.84650761  0.16202230  0.02104324     0.10800
H888        H  0.90862494  0.16272369  0.02157731     0.10800
H889        H  0.91023543  0.11048803  0.06515519     0.10500
H890        H  0.84883101  0.10969546  0.06465453     0.11600
H891        H  0.96403540  0.14967010  0.04452084     0.11700
H892        H  0.95798305  0.11019887  0.03054436     0.13600
H893        H  0.01179110  0.10093400  0.00167148     0.10100
H894        H  0.07377476  0.09980348  0.00219589     0.12200
H895        H  0.07541984  0.14210788  0.07454840     0.08800
H896        H  0.01378622  0.14327816  0.07378753     0.11600
C897        C  0.34111864  0.13180211  0.01826274    -0.03000
C898        C  0.35705349  0.11548637  0.01336865    -0.05600
C899        C  0.39212316  0.11435125  0.01032116    -0.20700
C900        C  0.41222613  0.12942262  0.01291602     0.25000
C901        C  0.39637590  0.14590443  0.01673145    -0.18300
C902        C  0.36096622  0.14709259  0.01907969    -0.08200
C903        C  0.44953433  0.12726315  0.01180149    -0.18500
C904        C  0.47081453  0.13731980  0.02981196    -0.23300
C905        C  0.50784862  0.13392210  0.03187173     0.27100
C906        C  0.52564062  0.13990131  0.06026426    -0.20100
C907        C  0.56057585  0.13729986  0.06293917    -0.09700
C908        C  0.57864356  0.12876425  0.03705596    -0.10300
C909        C  0.56078093  0.12264047  0.00871834    -0.03200
C910        C  0.52581723  0.12523084  0.00606926    -0.18300
H911        H  0.34230640  0.10350217  0.01215848     0.10800
H912        H  0.40367061  0.10155345  0.00699044     0.10800
H913        H  0.41125411  0.15782590  0.01792196     0.10500
H914        H  0.34923181  0.15981622  0.02263573     0.11600
H915        H  0.45929181  0.11586664  0.99858472     0.11700
H916        H  0.46044976  0.14761619  0.04570097     0.13600
H917        H  0.51245874  0.14666711  0.08045111     0.10100
H918        H  0.57351179  0.14229819  0.08502413     0.12200
H919        H  0.57394035  0.11622818  0.98810562     0.08800
H920        H  0.51323814  0.12083905  0.98334318     0.11600
C921        C  0.17074270  0.19182741  0.03725095    -0.03000
C922        C  0.13974514  0.19392039  0.05454332    -0.05600
C923        C  0.12191668  0.20974166  0.05287825    -0.20700
C924        C  0.13474467  0.22409681  0.03448106     0.25000
C925        C  0.16601521  0.22224333  0.01750324    -0.18300
C926        C  0.18373732  0.20620132  0.01870169    -0.08200
C927        C  0.11413567  0.24049302  0.03290922    -0.18500
C928        C  0.12774891  0.25663742  0.03005405    -0.23300
C929        C  0.10733394  0.27304852  0.03220893     0.27100
C930        C  0.12212926  0.28781589  0.04700945    -0.20100
C931        C  0.10419966  0.30355471  0.04958805    -0.09700
C932        C  0.07110472  0.30514164  0.03670559    -0.10300
C933        C  0.05629996  0.29042570  0.02131727    -0.03200
C934        C  0.07414348  0.27444671  0.01936874    -0.18300
H935        H  0.12861854  0.18312782  0.06878829     0.10800
H936        H  0.09790365  0.21076203  0.06607209     0.10800
H937        H  0.17633291  0.23296819  0.00251612     0.10500
H938        H  0.20731192  0.20498483  0.00483924     0.11600
H939        H  0.08703841  0.23929116  0.03711366     0.11700
H940        H  0.15511156  0.25797621  0.02929051     0.13600
H941        H  0.14767265  0.28714377  0.05687348     0.10100
H942        H  0.11672872  0.31466430  0.06109019     0.12200
H943        H  0.03107097  0.29128117  0.01077295     0.08800
H944        H  0.06228547  0.26335988  0.00715177     0.11600
C945        C  0.91788743  0.69381693  0.97766934    -0.03000
C946        C  0.88586280  0.69570852  0.96240458    -0.05600
C947        C  0.86841260  0.71163111  0.96348122    -0.20700
C948        C  0.88262702  0.72629201  0.97917406     0.25000
C949        C  0.91486803  0.72464580  0.99416740    -0.18300
C950        C  0.93223994  0.70848628  0.99364217    -0.08200
C951        C  0.86249462  0.74283391  0.97996058    -0.18500
C952        C  0.87658125  0.75889609  0.97820982    -0.23300
C953        C  0.85637216  0.77534845  0.97480963     0.27100
C954        C  0.87034638  0.78940685  0.95641324    -0.20100
C955        C  0.85294780  0.80529936  0.95317091    -0.09700
C956        C  0.82123823  0.80777237  0.96888095    -0.10300
C957        C  0.80697315  0.79363576  0.98721775    -0.03200
C958        C  0.82429291  0.77752231  0.99000505    -0.18300
H959        H  0.87371683  0.68470851  0.95014068     0.10800
H960        H  0.84365138  0.71251111  0.95183738     0.10800
H961        H  0.92626793  0.73566760  0.00701303     0.10500
H962        H  0.95667097  0.70743990  0.00586963     0.11600
H963        H  0.83512252  0.74167904  0.97865051     0.11700
H964        H  0.90392689  0.75997204  0.97605386     0.13600
H965        H  0.89495268  0.78810126  0.94447938     0.10100
H966        H  0.86496796  0.81585710  0.93901252     0.12200
H967        H  0.78280069  0.79512647  0.99989122     0.08800
H968        H  0.81304491  0.76700563  0.00487508     0.11600
C969        C  0.77825372  0.94216945  0.98541016    -0.03000
C970        C  0.79846265  0.95103762  0.00904745    -0.05600
C971        C  0.79422469  0.96908250  0.01442526    -0.20700
C972        C  0.76945232  0.97866962  0.99667813     0.25000
C973        C  0.75021704  0.96997044  0.97195352    -0.18300
C974        C  0.75456000  0.95194926  0.96644943    -0.08200
C975        C  0.76461430  0.99763428  0.00468543    -0.18500
C976        C  0.73554142  0.00650452  0.99891652    -0.23300
C977        C  0.73043367  0.02535548  0.00759862     0.27100
C978        C  0.70582716  0.03507549  0.98990300    -0.20100
C979        C  0.70064542  0.05291071  0.99670232    -0.09700
C980        C  0.71977417  0.06143400  0.02167604    -0.10300
C981        C  0.74356792  0.05153659  0.04027102    -0.03200
C982        C  0.74880512  0.03371188  0.03339537    -0.18300
H983        H  0.81716232  0.94398006  0.02388225     0.10800
H984        H  0.80977884  0.97548709  0.03322522     0.10800
H985        H  0.73181845  0.97696619  0.95671347     0.10500
H986        H  0.73882632  0.94561584  0.94772653     0.11600
H987        H  0.78562824  0.00430017  0.01668193     0.11700
H988        H  0.71450827  0.99987897  0.98688958     0.13600
H989        H  0.69098309  0.02892343  0.97023308     0.10100
H990        H  0.68202473  0.06008248  0.98196808     0.12200
H991        H  0.75848068  0.05760659  0.05996785     0.08800
H992        H  0.76705094  0.02655587  0.04855368     0.11600
C993        C  0.65300487  0.87168721  0.98207465    -0.03000
C994        C  0.63802061  0.88842435  0.98425822    -0.05600
C995        C  0.60327233  0.89020909  0.98922152    -0.20700
C996        C  0.58251133  0.87534900  0.99142036     0.25000
C997        C  0.59742388  0.85852234  0.99013810    -0.18300
C998        C  0.63248478  0.85671686  0.98570586    -0.08200
C999        C  0.54543439  0.87802074  0.99419452    -0.18500
C1000       C  0.52313842  0.86712566  0.97965182    -0.23300
C1001       C  0.48629083  0.87079281  0.97754189     0.27100
C1002       C  0.46800376  0.86299313  0.95129781    -0.20100
C1003       C  0.43319627  0.86556411  0.94849464    -0.09700
C1004       C  0.41557665  0.87581877  0.97226040    -0.10300
C1005       C  0.43388819  0.88386193  0.99841076    -0.03200
C1006       C  0.46896647  0.88140897  0.00102674    -0.18300
H1007       H  0.65322886  0.90023586  0.98225427     0.10800
H1008       H  0.59244574  0.90328212  0.99045712     0.10800
H1009       H  0.58211063  0.84678772  0.99268232     0.10500
H1010       H  0.64343142  0.84367744  0.98459308     0.11600
H1011       H  0.53665202  0.89028960  0.00499895     0.11700
H1012       H  0.53256238  0.85576898  0.96601464     0.13600
H1013       H  0.48069508  0.85476059  0.93291156     0.10100
H1014       H  0.41994771  0.85901253  0.92819480     0.12200
H1015       H  0.42101614  0.89169261  0.01729321     0.08800
H1016       H  0.48211845  0.88736902  0.02201555     0.11600
C1017       C  0.15238720  0.86496965  0.96956930    -0.03000
C1018       C  0.13445829  0.85218814  0.98824958    -0.05600
C1019       C  0.09910614  0.85312859  0.99102641    -0.20700
C1020       C  0.08094683  0.86673787  0.97498810     0.25000
C1021       C  0.09890801  0.87938397  0.95595006    -0.18300
C1022       C  0.13407332  0.87844937  0.95317112    -0.08200
C1023       C  0.04363920  0.86790733  0.97996123    -0.18500
C1024       C  0.02298573  0.87640724  0.95815094    -0.23300
C1025       C  0.98575799  0.87766528  0.96281297     0.27100
C1026       C  0.96538788  0.87950425  0.93394612    -0.20100
C1027       C  0.93022854  0.88035090  0.93696513    -0.09700
C1028       C  0.91462127  0.87975529  0.96903163    -0.10300
C1029       C  0.93500095  0.87866181  0.99811584    -0.03200
C1030       C  0.97029568  0.87753895  0.99505356    -0.18300
H1031       H  0.14776465  0.84169984  0.00132560     0.10800
H1032       H  0.08590737  0.84327474  0.00601287     0.10800
H1033       H  0.08616329  0.89039293  0.94403699     0.10500
H1034       H  0.14697496  0.88862085  0.93873399     0.11600
H1035       H  0.03280914  0.86100264  0.00163450     0.11700
H1036       H  0.03328779  0.88180906  0.93474051     0.13600
H1037       H  0.97668517  0.87988230  0.90887403     0.10100
H1038       H  0.91518456  0.88129672  0.91409179     0.12200
H1039       H  0.92362232  0.87815325  0.02313120     0.08800
H1040       H  0.98534730  0.87667172  0.01789282     0.11600
C1041       C  0.32420356  0.80593975  0.96973210    -0.03000
C1042       C  0.35769557  0.80421442  0.95783741    -0.05600
C1043       C  0.37506643  0.78835021  0.96114136    -0.20700
C1044       C  0.35931080  0.77365730  0.97576553     0.25000
C1045       C  0.32568938  0.77519051  0.98748444    -0.18300
C1046       C  0.30835637  0.79125928  0.98469404    -0.08200
C1047       C  0.37911068  0.75713598  0.97886412    -0.18500
C1048       C  0.36491574  0.74116022  0.97666445    -0.23300
C1049       C  0.38507706  0.72470712  0.97577943     0.27100
C1050       C  0.37277739  0.71070226  0.95667431    -0.20100
C1051       C  0.39047264  0.69487987  0.95529246    -0.09700
C1052       C  0.42071885  0.69247749  0.97359536    -0.10300
C1053       C  0.43311515  0.70649652  0.99294326    -0.03200
C1054       C  0.41554101  0.72254020  0.99387106    -0.18300
H1055       H  0.37095062  0.81529192  0.94658437     0.10800
H1056       H  0.40093461  0.78753411  0.95206454     0.10800
H1057       H  0.31307072  0.76414975  0.99953227     0.10500
H1058       H  0.28275724  0.79222967  0.99439337     0.11600
H1059       H  0.40651417  0.75820747  0.97982583     0.11700
H1060       H  0.33787236  0.74014737  0.97216574     0.13600
H1061       H  0.34936376  0.71202327  0.94262936     0.10100
H1062       H  0.37985011  0.68434544  0.94040250     0.12200
H1063       H  0.45608021  0.70499908  0.00761308     0.08800
H1064       H  0.42531881  0.73303123  0.00940381     0.11600
C1065       C  0.22525268  0.05788526  0.02780497    -0.03000
C1066       C  0.25021079  0.04972672  0.04789484    -0.05600
C1067       C  0.25743181  0.03186586  0.04430153    -0.20700
C1068       C  0.24024754  0.02175910  0.02030977     0.25000
C1069       C  0.21449489  0.02971526  0.00090260    -0.18300
C1070       C  0.20711022  0.04760710  0.00461864    -0.08200
C1071       C  0.24966737  0.00296453  0.01672510    -0.18500
C1072       C  0.24634505  0.99404501  0.98756154    -0.23300
C1073       C  0.25606827  0.97527182  0.98375496     0.27100
C1074       C  0.24101244  0.96554258  0.95780200    -0.20100
C1075       C  0.24822667  0.94768429  0.95410105    -0.09700
C1076       C  0.27095606  0.93913786  0.97616774    -0.10300
C1077       C  0.28720456  0.94904141  0.00123782    -0.03200
C1078       C  0.27993986  0.96692903  0.00496035    -0.18300
H1079       H  0.26465430  0.05720314  0.06607249     0.10800
H1080       H  0.27710610  0.02600571  0.05980797     0.10800
H1081       H  0.19988546  0.02218222  0.98298966     0.10500
H1082       H  0.18756877  0.05344056  0.98893719     0.11600
H1083       H  0.26063002  0.99654323  0.03877218     0.11700
H1084       H  0.23541937  0.00058356  0.96558929     0.13600
H1085       H  0.22293511  0.97168289  0.94080652     0.10100
H1086       H  0.23540284  0.94050275  0.93433186     0.12200
H1087       H  0.30511514  0.94291258  0.01840227     0.08800
H1088       H  0.29318813  0.97409652  0.02439477     0.11600
C1089       C  0.81282559  0.19787669  0.53988681    -0.03000
C1090       C  0.79232903  0.21179264  0.52836553    -0.05600
C1091       C  0.80462249  0.22908268  0.52838997    -0.20700
C1092       C  0.83777277  0.23263178  0.53914898     0.25000
C1093       C  0.85808193  0.21869363  0.55080232    -0.18300
C1094       C  0.84576636  0.20155964  0.55114301    -0.08200
C1095       C  0.85047563  0.25095944  0.53940460    -0.18500
C1096       C  0.88346790  0.25475885  0.53472227    -0.23300
C1097       C  0.89756554  0.27272224  0.53715146     0.27100
C1098       C  0.92720819  0.27684280  0.51908763    -0.20100
C1099       C  0.94161378  0.29356762  0.52120404    -0.09700
C1100       C  0.92684559  0.30643763  0.54184629    -0.10300
C1101       C  0.89766649  0.30211187  0.56074263    -0.03200
C1102       C  0.88315574  0.28543437  0.55841962    -0.18300
H1103       H  0.76680337  0.20933553  0.51967184     0.10800
H1104       H  0.78839310  0.23967153  0.51968345     0.10800
H1105       H  0.88334258  0.22100433  0.56032689     0.10500
H1106       H  0.86225281  0.19114548  0.56014374     0.11600
H1107       H  0.83221514  0.26148841  0.54270755     0.11700
H1108       H  0.90091953  0.24433250  0.52783932     0.13600
H1109       H  0.93899018  0.26715234  0.50289468     0.10100
H1110       H  0.96400730  0.29648370  0.50628341     0.12200
H1111       H  0.88570233  0.31169195  0.57703449     0.08800
H1112       H  0.86096869  0.28248311  0.57359756     0.11600
C1113       C  0.72012915  0.12378540  0.17119998    -0.03000
C1114       C  0.74355381  0.11174340  0.18491592    -0.05600
C1115       C  0.74984565  0.11112088  0.21973552    -0.20700
C1116       C  0.73329479  0.12263807  0.24183670     0.25000
C1117       C  0.70910142  0.13440213  0.22843891    -0.18300
C1118       C  0.70259078  0.13495450  0.19344883    -0.08200
C1119       C  0.74190466  0.12173211  0.27855777    -0.18500
C1120       C  0.73961693  0.13556930  0.29958112    -0.23300
C1121       C  0.74970947  0.13503393  0.33604105     0.27100
C1122       C  0.73763632  0.14826810  0.35751070    -0.20100
C1123       C  0.74601574  0.14831698  0.39194737    -0.09700
C1124       C  0.76700692  0.13517234  0.40585250    -0.10300
C1125       C  0.77992142  0.12217244  0.38422667    -0.03200
C1126       C  0.77146581  0.12210282  0.34972413    -0.18300
H1127       H  0.75746816  0.10287243  0.16867347     0.10800
H1128       H  0.76833336  0.10182398  0.22937139     0.10800
H1129       H  0.69502576  0.14310000  0.24484373     0.10500
H1130       H  0.68420181  0.14428406  0.18379127     0.11600
H1131       H  0.75179799  0.10932260  0.28794363     0.11700
H1132       H  0.72984330  0.14795109  0.28982075     0.13600
H1133       H  0.72120427  0.15851203  0.34769423     0.10100
H1134       H  0.73567567  0.15858921  0.40775858     0.12200
H1135       H  0.79629718  0.11190814  0.39402317     0.08800
H1136       H  0.78237874  0.11198740  0.33402786     0.11600
C1137       C  0.72134308  0.13470381  0.90580905    -0.03000
C1138       C  0.69990828  0.12492052  0.88477261    -0.05600
C1139       C  0.70483640  0.12480077  0.84963845    -0.20700
C1140       C  0.73145118  0.13430364  0.83447965     0.25000
C1141       C  0.75262684  0.14437843  0.85545402    -0.18300
C1142       C  0.74758037  0.14456093  0.89068102    -0.08200
C1143       C  0.73571350  0.13319703  0.79688910    -0.18500
C1144       C  0.76342273  0.13849865  0.77942769    -0.23300
C1145       C  0.76733397  0.13626479  0.74202084     0.27100
C1146       C  0.79006489  0.14714188  0.72412588    -0.20100
C1147       C  0.79463830  0.14531547  0.68905274    -0.09700
C1148       C  0.77666929  0.13246752  0.67104699    -0.10300
C1149       C  0.75439439  0.12137297  0.68906540    -0.03200
C1150       C  0.74991643  0.12315858  0.72408019    -0.18300
H1151       H  0.67935463  0.11723215  0.89545676     0.10800
H1152       H  0.68795266  0.11701136  0.83423707     0.10800
H1153       H  0.77298391  0.15223292  0.84503323     0.10500
H1154       H  0.76451009  0.15229605  0.90611083     0.11600
H1155       H  0.71489341  0.12735904  0.78310673     0.11700
H1156       H  0.78413329  0.14478188  0.79257173     0.13600
H1157       H  0.80410290  0.15721979  0.73728610     0.10100
H1158       H  0.81194924  0.15411195  0.67599161     0.12200
H1159       H  0.74039759  0.11121664  0.67610423     0.08800
H1160       H  0.73319630  0.11401602  0.73692703     0.11600
C1161       C  0.41502687  0.12178691  0.53312759    -0.03000
C1162       C  0.43212888  0.11156699  0.50896426    -0.05600
C1163       C  0.46754161  0.11125212  0.50801633    -0.20700
C1164       C  0.48638689  0.12145398  0.53062529     0.25000
C1165       C  0.46932230  0.13137893  0.55521074    -0.18300
C1166       C  0.43404322  0.13150004  0.55649867    -0.08200
C1167       C  0.52380657  0.12119970  0.52889127    -0.18500
C1168       C  0.54261207  0.13543183  0.53610620    -0.23300
C1169       C  0.58007306  0.13517421  0.53631662     0.27100
C1170       C  0.59796273  0.15069681  0.52899638    -0.20100
C1171       C  0.63335626  0.15093671  0.53010998    -0.09700
C1172       C  0.65139183  0.13571529  0.53933183    -0.10300
C1173       C  0.63335949  0.12025211  0.54709331    -0.03200
C1174       C  0.59811111  0.11996007  0.54552492    -0.18300
H1175       H  0.41816118  0.10388792  0.49072780     0.10800
H1176       H  0.48024527  0.10332455  0.48915781     0.10800
H1177       H  0.48320344  0.13894604  0.57367415     0.10500
H1178       H  0.42166462  0.13948867  0.57546426     0.11600
H1179       H  0.53600546  0.10923940  0.52025500     0.11700
H1180       H  0.53015886  0.14787847  0.54118194     0.13600
H1181       H  0.58450665  0.16262648  0.52220424     0.10100
H1182       H  0.64655649  0.16304549  0.52406631     0.12200
H1183       H  0.64650328  0.10828657  0.55424092     0.08800
H1184       H  0.58505500  0.10791705  0.55228286     0.11600
C1185       C  0.91468610  0.12532821  0.53302689    -0.03000
C1186       C  0.93150126  0.11405261  0.51051050    -0.05600
C1187       C  0.96685351  0.11422323  0.50808547    -0.20700
C1188       C  0.98609937  0.12588847  0.52756434     0.25000
C1189       C  0.96935333  0.13698595  0.55048886    -0.18300
C1190       C  0.93406368  0.13666712  0.55323307    -0.08200
C1191       C  0.02359065  0.12548981  0.52469663    -0.18500
C1192       C  0.04353441  0.13944358  0.53120764    -0.23300
C1193       C  0.08113495  0.13849969  0.53047682     0.27100
C1194       C  0.10014624  0.15381867  0.52424535    -0.20100
C1195       C  0.13564363  0.15335428  0.52483970    -0.09700
C1196       C  0.15274072  0.13758806  0.53232463    -0.10300
C1197       C  0.13359024  0.12230985  0.53867179    -0.03200
C1198       C  0.09831742  0.12274707  0.53779738    -0.18300
H1199       H  0.91734525  0.10511415  0.49471839     0.10800
H1200       H  0.97920948  0.10535676  0.49060969     0.10800
H1201       H  0.98341998  0.14573179  0.56671848     0.10500
H1202       H  0.92193197  0.14550986  0.57089649     0.11600
H1203       H  0.03498047  0.11336132  0.51587597     0.11700
H1204       H  0.03205572  0.15209071  0.53661808     0.13600
H1205       H  0.08748569  0.16616577  0.51888528     0.10100
H1206       H  0.14964497  0.16534686  0.51990320     0.12200
H1207       H  0.14586140  0.10991589  0.54451193     0.08800
H1208       H  0.08465498  0.11079088  0.54380432     0.11600
C1209       C  0.42116258  0.30885009  0.54433213    -0.03000
C1210       C  0.38710891  0.30706945  0.55437092    -0.05600
C1211       C  0.37015387  0.29112555  0.55094314    -0.20700
C1212       C  0.38689029  0.27636648  0.53820271     0.25000
C1213       C  0.42111057  0.27792696  0.52837674    -0.18300
C1214       C  0.43802142  0.29411743  0.53110862    -0.08200
C1215       C  0.36735565  0.25978662  0.53499701    -0.18500
C1216       C  0.38098781  0.24382053  0.54036909    -0.23300
C1217       C  0.36047640  0.22742010  0.54143713     0.27100
C1218       C  0.37151504  0.21348771  0.56205116    -0.20100
C1219       C  0.35362802  0.19767901  0.56332398    -0.09700
C1220       C  0.32442103  0.19522857  0.54348996    -0.10300
C1221       C  0.31302748  0.20926357  0.52307702    -0.03200
C1222       C  0.33084440  0.22522872  0.52208477    -0.18300
H1223       H  0.37311587  0.31818515  0.56415842     0.10800
H1224       H  0.34380725  0.29029138  0.55850958     0.10800
H1225       H  0.43451048  0.26680734  0.51786172     0.10500
H1226       H  0.46411346  0.29513117  0.52282965     0.11600
H1227       H  0.34017367  0.26092633  0.53157154     0.11700
H1228       H  0.40755683  0.24286798  0.54719953     0.13600
H1229       H  0.39418041  0.21482048  0.57722028     0.10100
H1230       H  0.36333539  0.18718502  0.57929728     0.12200
H1231       H  0.29088138  0.20776754  0.50725011     0.08800
H1232       H  0.32195477  0.23560074  0.50538977     0.11600
C1233       C  0.23152294  0.12644119  0.16520959    -0.03000
C1234       C  0.26030474  0.11773183  0.17791218    -0.05600
C1235       C  0.26812733  0.11815228  0.21239456    -0.20700
C1236       C  0.24772397  0.12742818  0.23524326     0.25000
C1237       C  0.21885282  0.13622221  0.22275475    -0.18300
C1238       C  0.21085474  0.13572208  0.18805586    -0.08200
C1239       C  0.25686374  0.12675913  0.27188446    -0.18500
C1240       C  0.24825265  0.13915648  0.29462648    -0.23300
C1241       C  0.25773191  0.13850074  0.33137999     0.27100
C1242       C  0.24258876  0.15058205  0.35352645    -0.20100
C1243       C  0.24970411  0.15021743  0.38830943    -0.09700
C1244       C  0.27229331  0.13774440  0.40194492    -0.10300
C1245       C  0.28823217  0.12596483  0.37973537    -0.03200
C1246       C  0.28120565  0.12635588  0.34494125    -0.18300
H1247       H  0.27690787  0.11047619  0.16119561     0.10800
H1248       H  0.29039388  0.11119629  0.22127007     0.10800
H1249       H  0.20200611  0.14314588  0.23970315     0.10500
H1250       H  0.18843886  0.14252121  0.17916714     0.11600
H1251       H  0.27208790  0.11562908  0.27977618     0.11700
H1252       H  0.23340727  0.15035737  0.28610930     0.13600
H1253       H  0.22470071  0.16020758  0.34396450     0.10100
H1254       H  0.23699863  0.15953721  0.40459769     0.12200
H1255       H  0.30596996  0.11626453  0.38927586     0.08800
H1256       H  0.29443340  0.11707975  0.32914200     0.11600
C1257       C  0.27207450  0.12722919  0.66639628    -0.03000
C1258       C  0.29060067  0.13911155  0.68616295    -0.05600
C1259       C  0.28495174  0.14023884  0.72113087    -0.20700
C1260       C  0.26064751  0.12957431  0.73728511     0.25000
C1261       C  0.24253643  0.11741968  0.71758847    -0.18300
C1262       C  0.24809177  0.11634705  0.68257112    -0.08200
C1263       C  0.25586242  0.13127980  0.77468251    -0.18500
C1264       C  0.22869461  0.12514484  0.79192943    -0.29700
C1265       C  0.22462351  0.12658159  0.82939691     0.27100
C1266       C  0.20347784  0.11452144  0.84632353    -0.20100
C1267       C  0.19906833  0.11524129  0.88151468    -0.09700
C1268       C  0.21543330  0.12821403  0.90066451    -0.10300
C1269       C  0.23607552  0.14053088  0.88362903    -0.03200
C1270       C  0.24057981  0.13976596  0.84842557    -0.18300
H1271       H  0.30920175  0.14773622  0.67455746     0.10800
H1272       H  0.29947532  0.14962384  0.73560027     0.10800
H1273       H  0.22436459  0.10851541  0.72892192     0.10500
H1274       H  0.23357123  0.10694820  0.66815411     0.11600
H1275       H  0.27579113  0.13793587  0.78840757     0.11700
H1276       H  0.20875723  0.11835771  0.77851853     0.13600
H1277       H  0.19065242  0.10432323  0.83229901     0.10100
H1278       H  0.18298310  0.10553735  0.89372486     0.12200
H1279       H  0.24893835  0.15075573  0.89751993     0.08800
H1280       H  0.25618896  0.14967510  0.83630282     0.11600
C1281       C  0.67536620  0.80841180  0.47070739    -0.03000
C1282       C  0.69063983  0.79490139  0.48982850    -0.05600
C1283       C  0.67647849  0.77796707  0.49073361    -0.20700
C1284       C  0.64640019  0.77424867  0.47318614     0.25000
C1285       C  0.63121480  0.78772675  0.45397520    -0.18300
C1286       C  0.64554622  0.80453717  0.45269338    -0.08200
C1287       C  0.63252257  0.75601635  0.47375165    -0.18500
C1288       C  0.59927445  0.75224985  0.47029437    -0.23300
C1289       C  0.58605352  0.73389865  0.46950200     0.27100
C1290       C  0.55362966  0.73009029  0.48246235    -0.20100
C1291       C  0.54092659  0.71283196  0.48219738    -0.09700
C1292       C  0.56009643  0.69911532  0.46810806    -0.10300
C1293       C  0.59205248  0.70313752  0.45408393    -0.03200
C1294       C  0.60490647  0.72024746  0.45489183    -0.18300
H1295       H  0.71351165  0.79740199  0.50405796     0.10800
H1296       H  0.68889577  0.76776051  0.50545308     0.10800
H1297       H  0.60860031  0.78525069  0.43934972     0.10500
H1298       H  0.63296550  0.81457396  0.43769538     0.11600
H1299       H  0.65029469  0.74535084  0.47823833     0.11700
H1300       H  0.58096489  0.76289393  0.46929609     0.13600
H1301       H  0.53838468  0.74043650  0.49343769     0.10100
H1302       H  0.51623675  0.71021806  0.49312215     0.12200
H1303       H  0.60759621  0.69295397  0.44297052     0.08800
H1304       H  0.62950739  0.72278690  0.44371999     0.11600
C1305       C  0.72458575  0.87627861  0.34098379    -0.03000
C1306       C  0.74874621  0.88783347  0.32692555    -0.05600
C1307       C  0.75573793  0.88785621  0.29221659    -0.20700
C1308       C  0.73917546  0.87621914  0.27046236     0.25000
C1309       C  0.71479151  0.86464179  0.28429986    -0.18300
C1310       C  0.70755769  0.86470655  0.31923648    -0.08200
C1311       C  0.74765224  0.87717851  0.23361297    -0.18500
C1312       C  0.74253155  0.86406162  0.21142825    -0.23300
C1313       C  0.75209674  0.86524416  0.17478843     0.27100
C1314       C  0.73635658  0.85389763  0.15182504    -0.20100
C1315       C  0.74429289  0.85460099  0.11722397    -0.09700
C1316       C  0.76844909  0.86662226  0.10464122    -0.10300
C1317       C  0.78476722  0.87774768  0.12768495    -0.03200
C1318       C  0.77684910  0.87702592  0.16234098    -0.18300
H1319       H  0.76234531  0.89698032  0.34276420     0.10800
H1320       H  0.77445706  0.89698052  0.28233098     0.10800
H1321       H  0.70083352  0.85575208  0.26830766     0.10500
H1322       H  0.68876397  0.85566884  0.32921836     0.11600
H1323       H  0.75934845  0.88927892  0.22477443     0.11700
H1324       H  0.73054066  0.85199692  0.22009349     0.13600
H1325       H  0.71747565  0.84457788  0.16062975     0.10100
H1326       H  0.73117205  0.84580918  0.10027772     0.12200
H1327       H  0.80365663  0.88706756  0.11894825     0.08800
H1328       H  0.79058861  0.88557900  0.17915991     0.11600
C1329       C  0.71579515  0.87232124  0.60660877    -0.03000
C1330       C  0.69671961  0.88403608  0.62638990    -0.05600
C1331       C  0.70100076  0.88467201  0.66156177    -0.20700
C1332       C  0.72474678  0.87382005  0.67790316     0.25000
C1333       C  0.74343653  0.86182137  0.65829832    -0.18300
C1334       C  0.73898784  0.86109418  0.62305931    -0.08200
C1335       C  0.72854541  0.87524051  0.71538839    -0.18500
C1336       C  0.75701107  0.87085342  0.73232371    -0.23300
C1337       C  0.76113606  0.87263436  0.76977546     0.27100
C1338       C  0.78697233  0.86306067  0.78592230    -0.20100
C1339       C  0.79176162  0.86416940  0.82099352    -0.09700
C1340       C  0.77093937  0.87501586  0.84086831    -0.10300
C1341       C  0.74553434  0.88492219  0.82465943    -0.03200
C1342       C  0.74073613  0.88380983  0.78955043    -0.18300
H1343       H  0.67854438  0.89283867  0.61468337     0.10800
H1344       H  0.68602790  0.89390837  0.67603308     0.10800
H1345       H  0.76120662  0.85282835  0.67001314     0.10500
H1346       H  0.75396284  0.85183488  0.60867108     0.11600
H1347       H  0.70714447  0.88057215  0.72915075     0.11700
H1348       H  0.77836406  0.86557007  0.71836086     0.13600
H1349       H  0.80333014  0.85450843  0.77137702     0.10100
H1350       H  0.81170069  0.85641423  0.83254788     0.12200
H1351       H  0.72927564  0.89355837  0.83911018     0.08800
H1352       H  0.72132169  0.89192999  0.77817016     0.11600
C1353       C  0.71977005  0.94403749  0.47971156    -0.03000
C1354       C  0.74085317  0.95276302  0.45617292    -0.05600
C1355       C  0.74788473  0.97066965  0.45942846    -0.20700
C1356       C  0.73440744  0.98030195  0.48645990     0.25000
C1357       C  0.71217451  0.97179348  0.50930137    -0.18300
C1358       C  0.70496018  0.95384745  0.50593637    -0.08200
C1359       C  0.74403011  0.99914598  0.48960398    -0.18500
C1360       C  0.74364848  0.00789217  0.51919242    -0.23300
C1361       C  0.75354949  0.02668912  0.52253065     0.27100
C1362       C  0.74087241  0.03616402  0.55015618    -0.20100
C1363       C  0.74853616  0.05396405  0.55395612    -0.09700
C1364       C  0.76943540  0.06274097  0.53034473    -0.10300
C1365       C  0.78325242  0.05311078  0.50333939    -0.03200
C1366       C  0.77545281  0.03526850  0.49946675    -0.18300
H1367       H  0.75251305  0.94568191  0.43548527     0.10800
H1368       H  0.76467254  0.97692532  0.44119972     0.10800
H1369       H  0.70022489  0.97889826  0.52974039     0.10500
H1370       H  0.68837742  0.94758237  0.52431758     0.11600
H1371       H  0.75263181  0.00579960  0.46670400     0.11700
H1372       H  0.73508963  0.00119908  0.54207186     0.13600
H1373       H  0.72432190  0.02985581  0.56853513     0.10100
H1374       H  0.73754950  0.06091722  0.57516544     0.12200
H1375       H  0.79963691  0.05942404  0.48483797     0.08800
H1376       H  0.78678950  0.02829856  0.47851926     0.11600
C1377       C  0.07771568  0.87800093  0.46698978    -0.03000
C1378       C  0.06097981  0.86819079  0.44205291    -0.05600
C1379       C  0.02608113  0.86544685  0.44392342    -0.20700
C1380       C  0.00697128  0.87260748  0.47044379     0.25000
C1381       C  0.02351275  0.88286470  0.49493674    -0.18300
C1382       C  0.05851037  0.88554375  0.49316295    -0.08200
C1383       C  0.97016148  0.86863210  0.47215202    -0.18500
C1384       C  0.94772654  0.87901902  0.48798745    -0.23300
C1385       C  0.91069603  0.87612414  0.48646791     0.27100
C1386       C  0.88971183  0.89092319  0.48559746    -0.20100
C1387       C  0.85479437  0.88906351  0.48304379    -0.09700
C1388       C  0.83981428  0.87231016  0.48208218    -0.10300
C1389       C  0.86062155  0.85736084  0.48419023    -0.03200
C1390       C  0.89594919  0.85924841  0.48604770    -0.18300
H1391       H  0.07499680  0.86206992  0.42166994     0.10800
H1392       H  0.01400853  0.85751143  0.42474939     0.10800
H1393       H  0.00986883  0.88830928  0.51621821     0.10500
H1394       H  0.07065754  0.89304910  0.51291258     0.11600
H1395       H  0.96095561  0.85746754  0.45786351     0.11700
H1396       H  0.95626788  0.89114313  0.49946304     0.13600
H1397       H  0.90044482  0.90402663  0.48616480     0.10100
H1398       H  0.83940702  0.90084784  0.48193811     0.12200
H1399       H  0.84967730  0.84431546  0.48368321     0.08800
H1400       H  0.91160233  0.84758111  0.48743788     0.11600
C1401       C  0.34007415  0.86658742  0.47500367    -0.03000
C1402       C  0.35743316  0.85071280  0.48074529    -0.05600
C1403       C  0.39293908  0.85031399  0.48011395    -0.20700
C1404       C  0.41159108  0.86580472  0.47446492     0.25000
C1405       C  0.39411333  0.88165908  0.46903693    -0.18300
C1406       C  0.35888391  0.88203458  0.46936449    -0.08200
C1407       C  0.44911617  0.86510777  0.47265394    -0.18500
C1408       C  0.46864267  0.87891332  0.48102616    -0.23300
C1409       C  0.50602703  0.87896987  0.47793660     0.27100
C1410       C  0.52483315  0.88959719  0.49980401    -0.20100
C1411       C  0.56009645  0.89019440  0.49748650    -0.09700
C1412       C  0.57731054  0.88038777  0.47278184    -0.10300
C1413       C  0.55836104  0.87012568  0.45018591    -0.03200
C1414       C  0.52305864  0.86938587  0.45277227    -0.18300
H1415       H  0.34361844  0.83859941  0.48504138     0.10800
H1416       H  0.40587579  0.83790733  0.48406368     0.10800
H1417       H  0.40751149  0.89376533  0.46356700     0.10500
H1418       H  0.34635528  0.89450973  0.46490598     0.11600
H1419       H  0.46086400  0.85283218  0.46510247     0.11700
H1420       H  0.45696127  0.89049296  0.49195342     0.13600
H1421       H  0.51220609  0.89727625  0.51909806     0.10100
H1422       H  0.57387930  0.89824976  0.51525137     0.12200
H1423       H  0.57082614  0.86243608  0.43082134     0.08800
H1424       H  0.50918021  0.86149612  0.43482982     0.11600
C1425       C  0.16959685  0.80846855  0.46849276    -0.03000
C1426       C  0.13948657  0.80581715  0.45019015    -0.05600
C1427       C  0.12138099  0.79014269  0.45334783    -0.20700
C1428       C  0.13312439  0.77651358  0.47429545     0.25000
C1429       C  0.16347463  0.77893028  0.49237706    -0.18300
C1430       C  0.18144955  0.79481321  0.48962900    -0.08200
C1431       C  0.11267168  0.76014843  0.47693152    -0.18500
C1432       C  0.12670398  0.74418130  0.48103429    -0.23300
C1433       C  0.10703485  0.72755691  0.47941348     0.27100
C1434       C  0.12321387  0.71263483  0.46664142    -0.20100
C1435       C  0.10622467  0.69661531  0.46498005    -0.09700
C1436       C  0.07270847  0.69493773  0.47680078    -0.10300
C1437       C  0.05636900  0.70984644  0.48987586    -0.03200
C1438       C  0.07329581  0.72609251  0.49089476    -0.18300
H1439       H  0.12926708  0.81606802  0.43395610     0.10800
H1440       H  0.09808222  0.78863894  0.43923879     0.10800
H1441       H  0.17286057  0.76877396  0.50930294     0.10500
H1442       H  0.20424430  0.79650481  0.50442670     0.11600
H1443       H  0.08568032  0.76113334  0.47207427     0.11700
H1444       H  0.15409044  0.74311043  0.48241846     0.13600
H1445       H  0.14916636  0.71338183  0.45777052     0.10100
H1446       H  0.11980672  0.68537157  0.45515080     0.12200
H1447       H  0.03067934  0.70892587  0.49937689     0.08800
H1448       H  0.06030733  0.73732801  0.50145019     0.11600
C1449       C  0.22542776  0.87754671  0.33890489    -0.03000
C1450       C  0.24693204  0.89036606  0.32460902    -0.05600
C1451       C  0.25369566  0.89068764  0.28976986    -0.20700
C1452       C  0.23966652  0.87806508  0.26821163     0.25000
C1453       C  0.21775931  0.86530735  0.28231065    -0.18300
C1454       C  0.21067896  0.86509136  0.31726819    -0.08200
C1455       C  0.24791782  0.87911806  0.23124661    -0.18500
C1456       C  0.24684359  0.86528274  0.21004073    -0.23300
C1457       C  0.25575204  0.86620012  0.17310995     0.27100
C1458       C  0.24595798  0.85223973  0.15221658    -0.20100
C1459       C  0.25310065  0.85251285  0.11740576    -0.09700
C1460       C  0.27059716  0.86671824  0.10246842    -0.10300
C1461       C  0.28128366  0.88049564  0.12344788    -0.03200
C1462       C  0.27400735  0.88026069  0.15830705    -0.18300
H1463       H  0.25861839  0.90022880  0.34037658     0.10800
H1464       H  0.27037416  0.90076206  0.27965279     0.10800
H1465       H  0.20563378  0.85564890  0.26646510     0.10500
H1466       H  0.19389151  0.85507796  0.32738671     0.11600
H1467       H  0.25606666  0.89183279  0.22169407     0.11700
H1468       H  0.23888792  0.85258612  0.21997602     0.13600
H1469       H  0.23225628  0.84113142  0.16279850     0.10100
H1470       H  0.24466155  0.84160036  0.10213997     0.12200
H1471       H  0.29496382  0.89160294  0.11286531     0.08800
H1472       H  0.28308133  0.89107433  0.17334090     0.11600
C1473       C  0.27479081  0.87042061  0.83684031    -0.03000
C1474       C  0.29419694  0.85877122  0.81725493    -0.05600
C1475       C  0.28865951  0.85737352  0.78228438    -0.20700
C1476       C  0.26351715  0.86747755  0.76615179     0.25000
C1477       C  0.24470132  0.87943841  0.78568086    -0.18300
C1478       C  0.25015795  0.88079855  0.82054263    -0.08200
C1479       C  0.25838443  0.86557332  0.72891006    -0.18500
C1480       C  0.22973361  0.87044433  0.71276885    -0.23300
C1481       C  0.22497135  0.86936783  0.67542438     0.27100
C1482       C  0.20148805  0.88070044  0.65991497    -0.20100
C1483       C  0.19665305  0.88050175  0.62480011    -0.09700
C1484       C  0.21496636  0.86878979  0.60432693    -0.10300
C1485       C  0.23772359  0.85703877  0.61999045    -0.03200
C1486       C  0.24267470  0.85730269  0.65513814    -0.18300
H1487       H  0.31340863  0.85059617  0.82897946     0.10800
H1488       H  0.30382005  0.84821051  0.76783660     0.10800
H1489       H  0.22604202  0.88801917  0.77427730     0.10500
H1490       H  0.23498231  0.89005014  0.83474552     0.11600
H1491       H  0.27909354  0.85995321  0.71448401     0.11700
H1492       H  0.20894947  0.87601160  0.72711754     0.13600
H1493       H  0.18725519  0.88999796  0.67497568     0.10100
H1494       H  0.17882264  0.88968906  0.61367387     0.12200
H1495       H  0.25201829  0.84772804  0.60504983     0.08800
H1496       H  0.26012890  0.84794010  0.66623449     0.11600
C1497       C  0.21991099  0.94185028  0.48715391    -0.03000
C1498       C  0.19747968  0.95098659  0.50841671    -0.05600
C1499       C  0.20177102  0.96896103  0.51415606    -0.20700
C1500       C  0.22871903  0.97821817  0.49910580     0.25000
C1501       C  0.25086411  0.96914552  0.47732575    -0.18300
C1502       C  0.24652440  0.95117395  0.47151888    -0.08200
C1503       C  0.23215518  0.99733452  0.50614868    -0.18500
C1504       C  0.26107493  0.00647482  0.50160621    -0.23300
C1505       C  0.26421851  0.02562253  0.50820655     0.27100
C1506       C  0.28964415  0.03512153  0.49119956    -0.20100
C1507       C  0.29344357  0.05316736  0.49631542    -0.09700
C1508       C  0.27210275  0.06212516  0.51894331    -0.10300
C1509       C  0.24712703  0.05254472  0.53662417    -0.03200
C1510       C  0.24321843  0.03449054  0.53136314    -0.18300
H1511       H  0.17664720  0.94423911  0.52080307     0.10800
H1512       H  0.18413769  0.97562944  0.53075905     0.10800
H1513       H  0.27129158  0.97581480  0.46424540     0.10500
H1514       H  0.26418123  0.94456860  0.45486502     0.11600
H1515       H  0.20985590  0.00400472  0.51571628     0.11700
H1516       H  0.28342184  0.99990545  0.49195099     0.13600
H1517       H  0.30637659  0.02858992  0.47349810     0.10100
H1518       H  0.31305911  0.06010615  0.48239674     0.12200
H1519       H  0.23041327  0.05901196  0.55441127     0.08800
H1520       H  0.22406812  0.02755801  0.54585594     0.11600
loop_ 
_geom_bond_atom_site_label_1 
_geom_bond_atom_site_label_2 
_geom_bond_distance 
_geom_bond_site_symmetry_2 
_ccdc_geom_bond_type 
O1           C17   1.275       .  A
O1           Zn7   2.011       .  S
C2           O18   1.277       .  A
C2           O15   1.276       .  A
C2         C1449   1.491       .  S
O3           C16   1.279       .  A
O3          Cd10   2.098       .  S
O4           C22   1.274       .  A
O4          Cd13   2.048       .  S
O5           C19   1.276       .  A
O5           Cd9   2.075       .  S
O6           C17   1.277       .  A
O6           Cd9   2.072       .  S
Zn7          O18   2.046       .  S
Zn7          O20   1.998       .  S
Zn7          O12   1.934       .  S
O8           C19   1.275       .  A
O8          Cd13   2.071       .  S
Cd9          O11   2.076       .  S
Cd9          O12   1.998       .  S
Cd10         O14   2.079       .  S
Cd10         O23   2.095       .  S
Cd10         O12   2.014       .  S
O11          C21   1.276       .  A
O12         Cd13   1.981       .  S
Cd13         O15   2.075       .  S
O14          C21   1.276       .  A
C16          O20   1.273       .  A
C16        C1425   1.487       .  S
C17        C1377   1.481       .  S
C19        C1497   1.484       .  S
C21        C1484   1.486       .  S
C22          O23   1.279       .  A
C22        C1401   1.481       .  S
O24          C40   1.277       .  A
O24         Zn30   2.023       .  S
C25          O41   1.279       .  A
C25          O38   1.273       .  A
C25        C1305   1.488       .  S
O26          C39   1.281       .  A
O26         Cd33   2.109       .  S
O27          C45   1.272       .  A
O27         Cd36   2.037       .  S
O28          C42   1.277       .  A
O28         Cd32   2.092       .  S
O29          C40   1.277       .  A
O29         Cd32   2.069       .  S
Zn30         O41   2.060       .  S
Zn30         O43   2.007       .  S
Zn30         O35   1.946       .  S
O31          C42   1.273       .  A
O31         Cd36   2.059       .  S
Cd32         O34   2.077       .  S
Cd32         O35   2.001       .  S
Cd33         O37   2.088       .  S
Cd33         O46   2.107       .  S
Cd33         O35   2.020       .  S
O34          C44   1.277       .  A
O35         Cd36   1.974       .  S
Cd36         O38   2.053       .  S
O37          C44   1.278       .  A
C39          O43   1.274       .  A
C39        C1281   1.491       .  S
C40        C1412   1.482       .  S
C42        C1353   1.486       .  S
C44        C1329   1.489       .  S
C45          O46   1.280       .  A
C45        C1388   1.478       .  S
O47          C63   1.275       .  A
O47         Zn53   2.026       .  S
C48          O64   1.275       .  A
C48          O61   1.276       .  A
C48        C1161   1.479       .  S
O49          C62   1.280       .  A
O49         Cd56   2.105       .  S
O50          C68   1.277       .  A
O50         Cd59   2.079       .  S
O51          C65   1.276       .  A
O51         Cd55   2.072       .  S
O52          C63   1.275       .  A
O52         Cd55   2.077       .  S
Zn53         O64   2.009       .  S
Zn53         O66   1.990       .  S
Zn53         O58   1.929       .  S
O54          C65   1.276       .  A
O54         Cd59   2.071       .  S
Cd55         O57   2.053       .  S
Cd55         O58   1.988       .  S
Cd56         O60   2.098       .  S
Cd56         O69   2.082       .  S
Cd56         O58   2.012       .  S
O57          C67   1.275       .  A
O58         Cd59   1.997       .  S
Cd59         O61   2.073       .  S
O60          C67   1.280       .  A
C62          O66   1.272       .  A
C62        C1220   1.487       .  S
C63        C1257   1.486       .  S
C65        C1508   1.483       .  S
C67        C1196   1.484       .  S
C68          O69   1.277       .  A
C68        C1244   1.488       .  S
O70          C86   1.276       .  A
O70         Zn76   2.037       .  S
C71          O87   1.275       .  A
C71          O84   1.278       .  A
C71        C1185   1.483       .  S
O72          C85   1.276       .  A
O72         Cd79   2.083       .  S
O73          C91   1.278       .  A
O73         Cd82   2.090       .  S
O74          C88   1.275       .  A
O74         Cd78   2.061       .  S
O75          C86   1.275       .  A
O75         Cd78   2.071       .  S
Zn76         O87   2.012       .  S
Zn76         O89   1.992       .  S
Zn76         O81   1.933       .  S
O77          C88   1.277       .  A
O77         Cd82   2.087       .  S
Cd78         O80   2.053       .  S
Cd78         O81   1.985       .  S
Cd79         O83   2.078       .  S
Cd79         O92   2.068       .  S
Cd79         O81   2.009       .  S
O80          C90   1.274       .  A
O81         Cd82   2.005       .  S
Cd82         O84   2.086       .  S
O83          C90   1.276       .  A
C85          O89   1.272       .  A
C85        C1089   1.478       .  S
C86        C1148   1.488       .  S
C88        C1364   1.485       .  S
C90        C1172   1.478       .  S
C91          O92   1.275       .  A
C91        C1124   1.487       .  S
O93         C109   1.275       .  A
O93         Zn99   2.034       .  S
C94         O110   1.274       .  A
C94         O107   1.278       .  A
C94        C1004   1.483       .  S
O95         C108   1.279       .  A
O95        Cd102   2.105       .  S
O96         C114   1.278       .  A
O96        Cd105   2.091       .  S
O97         C111   1.274       .  A
O97        Cd101   2.055       .  S
O98         C109   1.273       .  A
O98        Cd101   2.062       .  S
Zn99        O110   1.999       .  S
Zn99        O112   1.980       .  S
Zn99        O104   1.928       .  S
O100        C111   1.278       .  A
O100       Cd105   2.086   1_556  S
Cd101       O103   2.045       .  S
Cd101       O104   1.978       .  S
Cd102       O106   2.103       .  S
Cd102       O115   2.080   1_556  S
Cd102       O104   2.013       .  S
O103        C113   1.273       .  A
O104       Cd105   2.005   1_556  S
Cd105       O107   2.089   1_554  S
O106        C113   1.281       .  A
C108        O112   1.271       .  A
C108       C1041   1.483       .  S
C109       C1473   1.485       .  S
C111       C1076   1.483       .  S
C113       C1017   1.485       .  S
C114        O115   1.277       .  A
C114       C1460   1.490       .  S
O116        C132   1.275       .  A
O116       Zn122   2.023       .  S
C117        O133   1.274       .  A
C117        O130   1.279       .  A
C117       C1028   1.479       .  S
O118        C131   1.280       .  A
O118       Cd125   2.109       .  S
O119        C137   1.279       .  A
O119       Cd128   2.092       .  S
O120        C134   1.276       .  A
O120       Cd124   2.070       .  S
O121        C132   1.276       .  A
O121       Cd124   2.080       .  S
Zn122       O133   1.999       .  S
Zn122       O135   1.999       .  S
Zn122       O127   1.917       .  S
O123        C134   1.278   1_554  A
O123       Cd128   2.092       .  S
Cd124       O126   2.047       .  S
Cd124       O127   1.982       .  S
Cd125       O129   2.095       .  S
Cd125       O138   2.068   1_556  S
Cd125       O127   2.010       .  S
O126        C136   1.274       .  A
O127       Cd128   2.002   1_556  S
Cd128       O130   2.091   1_554  S
O129        C136   1.280       .  A
C131        O135   1.273       .  A
C131        C956   1.490       .  S
C132       C1340   1.487       .  S
C134        C969   1.488       .  S
C136        C993   1.479       .  S
C137        O138   1.275       .  A
C137       C1316   1.488       .  S
O139        C155   1.276       .  A
O139       Zn145   2.015       .  S
C140        O156   1.278       .  A
C140        O153   1.274       .  A
C140       C1233   1.489       .  S
O141        C154   1.280       .  A
O141       Cd148   2.113       .  S
O142        C160   1.272       .  A
O142       Cd151   2.041       .  S
O143        C157   1.276       .  A
O143       Cd147   2.085       .  S
O144        C155   1.277       .  A
O144       Cd147   2.077       .  S
Zn145       O156   2.052       .  S
Zn145       O158   1.993       .  S
Zn145       O150   1.937       .  S
O146        C157   1.273       .  A
O146       Cd151   2.059       .  S
Cd147       O149   2.076   1_554  S
Cd147       O150   2.002       .  S
Cd148       O152   2.083   1_554  S
Cd148       O161   2.107       .  S
Cd148       O150   2.019       .  S
O149        C159   1.277       .  A
O150       Cd151   1.974       .  S
Cd151       O153   2.062       .  S
O152        C159   1.277       .  A
C154        O158   1.272       .  A
C154        C921   1.489       .  S
C155        C884   1.481       .  S
C157       C1065   1.484       .  S
C159       C1268   1.487       .  S
C160        O161   1.280       .  A
C160        C897   1.477       .  S
O162        C178   1.276       .  A
O162       Zn168   2.021       .  S
C163        O179   1.278       .  A
C163        O176   1.274       .  A
C163       C1113   1.488       .  S
O164        C177   1.277       .  A
O164       Cd171   2.086       .  S
O165        C183   1.275       .  A
O165       Cd174   2.057       .  S
O166        C180   1.277       .  A
O166       Cd170   2.085       .  S
O167        C178   1.277       .  A
O167       Cd170   2.076       .  S
Zn168       O179   2.051       .  S
Zn168       O181   2.010       .  S
Zn168       O173   1.946       .  S
O169        C180   1.275       .  A
O169       Cd174   2.070       .  S
Cd170       O172   2.079   1_554  S
Cd170       O173   2.000       .  S
Cd171       O175   2.081   1_554  S
Cd171       O184   2.084       .  S
Cd171       O173   2.011       .  S
O172        C182   1.277       .  A
O173       Cd174   1.986       .  S
Cd174       O176   2.061       .  S
O175        C182   1.276       .  A
C177        O181   1.274       .  A
C177        C860   1.485       .  S
C178        C908   1.485       .  S
C180        C980   1.487       .  S
C182       C1137   1.488       .  S
C183        O184   1.277       .  A
C183        C873   1.482       .  S
O185        C201   1.277       .  A
O185       Zn191   2.034       .  S
C186        O202   1.275       .  A
C186        O199   1.276       .  A
C186        C753   1.484       .  S
O187        C200   1.278       .  A
O187       Cd194   2.101       .  S
O188        C206   1.276       .  A
O188       Cd197   2.076       .  S
O189        C203   1.277       .  A
O189       Cd193   2.083       .  S
O190        C201   1.276       .  A
O190       Cd193   2.076       .  S
Zn191       O202   2.014       .  S
Zn191       O204   1.998       .  S
Zn191       O196   1.935       .  S
O192        C203   1.277       .  A
O192       Cd197   2.079       .  S
Cd193       O195   2.055       .  S
Cd193       O196   1.994       .  S
Cd194       O198   2.090       .  S
Cd194       O207   2.073       .  S
Cd194       O196   2.019       .  S
O195        C205   1.275       .  A
O196       Cd197   2.000       .  S
Cd197       O199   2.077       .  S
O198        C205   1.278       .  A
C200        O204   1.273       .  A
C200       C1209   1.485       .  S
C201        C801   1.488       .  S
C203        C825   1.488       .  S
C205        C729   1.477       .  S
C206        O207   1.276       .  A
C206        C788   1.484       .  S
O208        C224   1.274       .  A
O208       Zn214   2.019       .  S
C209        O225   1.273       .  A
C209        O222   1.278       .  A
C209        C740   1.483       .  S
O210        C223   1.276       .  A
O210       Cd217   2.078       .  S
O211        C229   1.277       .  A
O211       Cd220   2.086       .  S
O212        C226   1.276       .  A
O212       Cd216   2.069       .  S
O213        C224   1.277       .  A
O213       Cd216   2.087       .  S
Zn214       O225   1.993       .  S
Zn214       O227   1.992       .  S
Zn214       O219   1.928       .  S
O215        C226   1.277       .  A
O215       Cd220   2.079       .  S
Cd216       O218   2.062   1_655  S
Cd216       O219   1.989       .  S
Cd217       O221   2.084   1_655  S
Cd217       O230   2.072       .  S
Cd217       O219   2.004       .  S
O218        C228   1.275       .  A
O219       Cd220   2.004       .  S
Cd220       O222   2.089       .  S
O221        C228   1.278       .  A
C223        O227   1.271       .  A
C223       C1100   1.480       .  S
C224        C692   1.488       .  S
C226        C705   1.484       .  S
C228        C764   1.483       .  S
C229        O230   1.275       .  A
C229        C668   1.487       .  S
O231        C247   1.274       .  A
O231       Zn237   1.996       .  S
C232        O248   1.275       .  A
C232        O245   1.277       .  A
C232        C620   1.487       .  S
O233        C246   1.279       .  A
O233       Cd240   2.105       .  S
O234        C252   1.275       .  A
O234       Cd243   2.056   1_655  S
O235        C249   1.276       .  A
O235       Cd239   2.074       .  S
O236        C247   1.277       .  A
O236       Cd239   2.077       .  S
Zn237       O248   2.021       .  S
Zn237       O250   1.988       .  S
Zn237       O242   1.920       .  S
O238        C249   1.276       .  A
O238       Cd243   2.073       .  S
Cd239       O241   2.073       .  S
Cd239       O242   1.996       .  S
Cd240       O244   2.084       .  S
Cd240       O253   2.087   1_455  S
Cd240       O242   2.012       .  S
O241        C251   1.276       .  A
O242       Cd243   1.985       .  S
Cd243       O245   2.084       .  S
O244        C251   1.277       .  A
C246        O250   1.271       .  A
C246       C1436   1.485       .  S
C247        C596   1.478       .  S
C249        C716   1.484       .  S
C251        C644   1.486       .  S
C252        O253   1.278       .  A
C252        C561   1.472       .  S
O254        C270   1.275       .  A
O254       Zn260   2.005       .  S
C255        O271   1.277       .  A
C255        O268   1.274       .  A
C255        C524   1.488       .  S
O256        C269   1.280       .  A
O256       Cd263   2.107       .  S
O257        C275   1.273       .  A
O257       Cd266   2.041       .  S
O258        C272   1.278       .  A
O258       Cd262   2.093       .  S
O259        C270   1.278       .  A
O259       Cd262   2.080       .  S
Zn260       O271   2.039       .  S
Zn260       O273   2.005       .  S
Zn260       O265   1.933       .  S
O261        C272   1.275       .  A
O261       Cd266   2.065       .  S
Cd262       O264   2.086       .  S
Cd262       O265   2.006       .  S
Cd263       O267   2.078       .  S
Cd263       O276   2.095       .  S
Cd263       O265   2.014       .  S
O264        C274   1.278       .  A
O265       Cd266   1.984       .  S
Cd266       O268   2.070       .  S
O267        C274   1.277       .  A
C269        O273   1.273       .  A
C269       C1292   1.490       .  S
C270        C572   1.482       .  S
C272        C836   1.488       .  S
C274        C537   1.488       .  S
C275        O276   1.279       .  A
C275        C585   1.480       .  S
O277        C293   1.275       .  A
O277       Zn283   2.006       .  S
C278        O294   1.277       .  A
C278        O291   1.273       .  A
C278        C657   1.485       .  S
O279        C292   1.280       .  A
O279       Cd286   2.111       .  S
O280        C298   1.273       .  A
O280       Cd289   2.043       .  S
O281        C295   1.277       .  A
O281       Cd285   2.093       .  S
O282        C293   1.277       .  A
O282       Cd285   2.083       .  S
Zn283       O294   2.044       .  S
Zn283       O296   1.996       .  S
Zn283       O288   1.933       .  S
O284        C295   1.273       .  A
O284       Cd289   2.054   1_455  S
Cd285       O287   2.073   1_554  S
Cd285       O288   2.003       .  S
Cd286       O290   2.086   1_554  S
Cd286       O299   2.106   1_455  S
Cd286       O288   2.019       .  S
O287        C297   1.277       .  A
O288       Cd289   1.974   1_455  S
Cd289       O291   2.056   1_655  S
O290        C297   1.278       .  A
C292        O296   1.273       .  A
C292        C932   1.488       .  S
C293        C465   1.484       .  S
C295        C489   1.484       .  S
C297        C681   1.486       .  S
C298        O299   1.280       .  A
C298        C441   1.482       .  S
O300        C316   1.274       .  A
O300       Zn306   2.002       .  S
C301        O317   1.275       .  A
C301        O314   1.273       .  A
C301        C777   1.485       .  S
O302        C315   1.279       .  A
O302       Cd309   2.103       .  S
O303        C321   1.273       .  A
O303       Cd312   2.048       .  S
O304        C318   1.277       .  A
O304       Cd308   2.086       .  S
O305        C316   1.276       .  A
O305       Cd308   2.079       .  S
Zn306       O317   2.036       .  S
Zn306       O319   1.989       .  S
Zn306       O311   1.938       .  S
O307        C318   1.274       .  A
O307       Cd312   2.062       .  S
Cd308       O310   2.079   1_554  S
Cd308       O311   2.004       .  S
Cd309       O313   2.087   1_554  S
Cd309       O322   2.098       .  S
Cd309       O311   2.020       .  S
O310        C320   1.277       .  A
O311       Cd312   1.985       .  S
Cd312       O314   2.060       .  S
O313        C320   1.277       .  A
C315        O319   1.272       .  A
C315        C849   1.484       .  S
C316        C452   1.481       .  S
C318        C428   1.485       .  S
C320        C812   1.489       .  S
C321        O322   1.279       .  A
C321        C476   1.479       .  S
O323        C339   1.276       .  A
O323       Zn329   2.041       .  S
C324        O340   1.275       .  A
C324        O337   1.278   1_556  A
C324        C393   1.483       .  S
O325        C338   1.279       .  A
O325       Cd332   2.102   1_556  S
O326        C344   1.277       .  A
O326       Cd335   2.080       .  S
O327        C341   1.274       .  A
O327       Cd331   2.053       .  S
O328        C339   1.274       .  A
O328       Cd331   2.065       .  S
Zn329       O340   2.010       .  S
Zn329       O342   1.986       .  S
Zn329       O334   1.929       .  S
O330        C341   1.278   1_554  A
O330       Cd335   2.090       .  S
Cd331       O333   2.046       .  S
Cd331       O334   1.974       .  S
Cd332       O336   2.099   1_554  S
Cd332       O345   2.084       .  S
Cd332       O334   2.013   1_554  S
O333        C343   1.274       .  A
O334       Cd335   2.001   1_556  S
Cd335       O337   2.088       .  S
O336        C343   1.280       .  A
C338        O342   1.272       .  A
C338       C1052   1.484       .  S
C339        C548   1.488       .  S
C341        C417   1.483       .  S
C343        C369   1.483       .  S
C344        O345   1.277       .  A
C344        C513   1.489       .  S
O346        C362   1.276       .  A
O346       Zn352   2.034       .  S
C347        O363   1.274       .  A
C347        O360   1.276   1_556  A
C347        C380   1.480       .  S
O348        C361   1.280       .  A
O348       Cd355   2.116   1_556  S
O349        C367   1.277       .  A
O349       Cd358   2.073       .  S
O350        C364   1.275       .  A
O350       Cd354   2.067       .  S
O351        C362   1.273       .  A
O351       Cd354   2.062       .  S
Zn352       O363   2.004       .  S
Zn352       O365   1.986       .  S
Zn352       O357   1.933       .  S
O353        C364   1.277   1_554  A
O353       Cd358   2.085       .  S
Cd354       O356   2.045   1_655  S
Cd354       O357   1.984       .  S
Cd355       O359   2.105   1_654  S
Cd355       O368   2.088       .  S
Cd355       O357   2.024   1_554  S
O356        C366   1.274       .  A
O357       Cd358   2.001   1_556  S
Cd358       O360   2.077       .  S
O359        C366   1.281       .  A
C361        O365   1.271       .  A
C361        C945   1.489       .  S
C362        C633   1.485       .  S
C364        C500   1.485       .  S
C366        C404   1.484       .  S
C367        O368   1.278       .  A
C367        C609   1.488       .  S
C369        C370   1.406       .  A
C369        C374   1.407       .  A
C370        C371   1.403       .  A
C370        H383   1.083   1_556  S
C371        C372   1.405       .  A
C371        H384   1.083   1_556  S
C372        C373   1.403       .  A
C372        C375   1.483       .  S
C373        C374   1.392       .  A
C373        H385   1.082       .  S
C374        H386   1.083       .  S
C375        C376   1.348       .  D
C375        H387   1.086       .  S
C376        C377   1.482       .  S
C376        H388   1.086   1_556  S
C377        C378   1.404   1_556  A
C377        C382   1.405       .  A
C378        C379   1.399       .  A
C378        H389   1.083       .  S
C379        C380   1.405   1_554  A
C379        H390   1.083       .  S
C380        C381   1.407       .  A
C381        C382   1.396       .  A
C381        H391   1.083       .  S
C382        H392   1.082       .  S
C393        C394   1.406       .  A
C393        C398   1.406   1_556  A
C394        C395   1.396       .  A
C394        H407   1.083       .  S
C395        C396   1.402       .  A
C395        H408   1.084       .  S
C396        C397   1.408   1_556  A
C396        C399   1.486       .  S
C397        C398   1.402       .  A
C397        H409   1.082       .  S
C398        H410   1.083       .  S
C399        C400   1.349       .  D
C399        H411   1.085       .  S
C400        C401   1.489       .  S
C400        H412   1.085   1_556  S
C401        C402   1.406   1_556  A
C401        C406   1.406       .  A
C402        C403   1.404       .  A
C402        H413   1.083       .  S
C403        C404   1.405   1_554  A
C403        H414   1.083       .  S
C404        C405   1.407       .  A
C405        C406   1.394       .  A
C405        H415   1.083       .  S
C406        H416   1.081       .  S
C417        C418   1.406       .  A
C417        C422   1.406   1_556  A
C418        C419   1.395       .  A
C418        H431   1.083       .  S
C419        C420   1.402       .  A
C419        H432   1.084       .  S
C420        C421   1.409   1_556  A
C420        C423   1.487   1_556  S
C421        C422   1.402       .  A
C421        H433   1.081       .  S
C422        H434   1.083       .  S
C423        C424   1.347       .  D
C423        H435   1.085   1_554  S
C424        C425   1.487       .  S
C424        H436   1.085       .  S
C425        C426   1.402       .  A
C425        C430   1.409       .  A
C426        C427   1.398       .  A
C426        H437   1.083       .  S
C427        C428   1.407       .  A
C427        H438   1.083       .  S
C428        C429   1.406       .  A
C429        C430   1.400       .  A
C429        H439   1.083   1_554  S
C430        H440   1.081   1_554  S
C441        C442   1.405       .  A
C441        C446   1.407       .  A
C442        C443   1.404       .  A
C442        H455   1.083       .  S
C443        C444   1.407       .  A
C443        H456   1.083       .  S
C444        C445   1.404       .  A
C444        C447   1.486       .  S
C445        C446   1.392       .  A
C445        H457   1.082       .  S
C446        H458   1.083       .  S
C447        C448   1.349       .  D
C447        H459   1.086       .  S
C448        C449   1.484       .  S
C448        H460   1.086       .  S
C449        C450   1.404       .  A
C449        C454   1.405       .  A
C450        C451   1.399       .  A
C450        H461   1.083   1_554  S
C451        C452   1.405       .  A
C451        H462   1.083   1_554  S
C452        C453   1.407       .  A
C453        C454   1.396       .  A
C453        H463   1.083       .  S
C454        H464   1.082       .  S
C465        C466   1.406       .  A
C465        C470   1.406       .  A
C466        C467   1.401       .  A
C466        H479   1.083   1_554  S
C467        C468   1.405       .  A
C467        H480   1.083   1_554  S
C468        C469   1.407       .  A
C468        C471   1.488       .  S
C469        C470   1.395       .  A
C469        H481   1.081       .  S
C470        H482   1.083       .  S
C471        C472   1.347       .  D
C471        H483   1.086       .  S
C472        C473   1.483       .  S
C472        H484   1.085       .  S
C473        C474   1.401       .  A
C473        C478   1.409       .  A
C474        C475   1.394       .  A
C474        H485   1.084       .  S
C475        C476   1.406       .  A
C475        H486   1.083       .  S
C476        C477   1.405       .  A
C477        C478   1.403       .  A
C477        H487   1.083       .  S
C478        H488   1.082       .  S
C489        C490   1.407   1_455  A
C489        C494   1.406   1_554  A
C490        C491   1.396       .  A
C490        H503   1.083       .  S
C491        C492   1.402   1_655  A
C491        H504   1.084       .  S
C492        C493   1.409   1_554  A
C492        C495   1.487   1_455  S
C493        C494   1.402       .  A
C493        H505   1.081       .  S
C494        H506   1.083       .  S
C495        C496   1.348   1_554  D
C495        H507   1.085       .  S
C496        C497   1.490       .  S
C496        H508   1.086   1_655  S
C497        C498   1.403   1_655  A
C497        C502   1.409   1_556  A
C498        C499   1.398   1_455  A
C498        H509   1.084       .  S
C499        C500   1.407       .  A
C499        H510   1.083   1_655  S
C500        C501   1.406   1_556  A
C501        C502   1.400       .  A
C501        H511   1.083       .  S
C502        H512   1.081       .  S
C513        C514   1.407       .  A
C513        C518   1.407       .  A
C514        C515   1.400       .  A
C514        H527   1.083       .  S
C515        C516   1.404       .  A
C515        H528   1.083       .  S
C516        C517   1.409       .  A
C516        C519   1.493       .  S
C517        C518   1.401       .  A
C517        H529   1.081       .  S
C518        H530   1.083       .  S
C519        C520   1.351       .  D
C519        H531   1.084       .  S
C520        C521   1.494       .  S
C520        H532   1.084       .  S
C521        C522   1.406       .  A
C521        C526   1.409       .  A
C522        C523   1.400       .  A
C522        H533   1.083       .  S
C523        C524   1.405       .  A
C523        H534   1.083       .  S
C524        C525   1.408       .  A
C525        C526   1.401       .  A
C525        H535   1.083       .  S
C526        H536   1.080       .  S
C537        C538   1.407       .  A
C537        C542   1.407       .  A
C538        C539   1.399       .  A
C538        H551   1.083       .  S
C539        C540   1.403       .  A
C539        H552   1.083       .  S
C540        C541   1.410       .  A
C540        C543   1.493       .  S
C541        C542   1.402       .  A
C541        H553   1.081       .  S
C542        H554   1.083       .  S
C543        C544   1.349       .  D
C543        H555   1.084       .  S
C544        C545   1.492       .  S
C544        H556   1.085       .  S
C545        C546   1.403       .  A
C545        C550   1.410       .  A
C546        C547   1.397       .  A
C546        H557   1.083       .  S
C547        C548   1.406       .  A
C547        H558   1.083       .  S
C548        C549   1.407       .  A
C549        C550   1.404       .  A
C549        H559   1.083       .  S
C550        H560   1.081       .  S
C561        C562   1.403       .  A
C561        C566   1.403       .  A
C562        C563   1.393       .  A
C562        H575   1.084       .  S
C563        C564   1.401       .  A
C563        H576   1.084       .  S
C564        C565   1.410       .  A
C564        C567   1.483       .  S
C565        C566   1.401       .  A
C565        H577   1.082       .  S
C566        H578   1.083       .  S
C567        C568   1.345       .  D
C567        H579   1.085       .  S
C568        C569   1.485       .  S
C568        H580   1.086       .  S
C569        C570   1.402       .  A
C569        C574   1.409       .  A
C570        C571   1.395       .  A
C570        H581   1.084       .  S
C571        C572   1.407       .  A
C571        H582   1.083       .  S
C572        C573   1.405       .  A
C573        C574   1.399       .  A
C573        H583   1.083       .  S
C574        H584   1.081       .  S
C585        C586   1.408       .  A
C585        C590   1.405       .  A
C586        C587   1.393       .  A
C586        H599   1.083       .  S
C587        C588   1.398       .  A
C587        H600   1.084       .  S
C588        C589   1.409       .  A
C588        C591   1.480       .  S
C589        C590   1.401       .  A
C589        H601   1.082       .  S
C590        H602   1.083       .  S
C591        C592   1.342       .  D
C591        H603   1.086       .  S
C592        C593   1.480       .  S
C592        H604   1.086       .  S
C593        C594   1.399       .  A
C593        C598   1.408       .  A
C594        C595   1.393       .  A
C594        H605   1.084       .  S
C595        C596   1.406       .  A
C595        H606   1.083       .  S
C596        C597   1.405       .  A
C597        C598   1.400       .  A
C597        H607   1.083       .  S
C598        H608   1.082       .  S
C609        C610   1.406       .  A
C609        C614   1.408       .  A
C610        C611   1.397       .  A
C610        H623   1.083       .  S
C611        C612   1.403       .  A
C611        H624   1.083       .  S
C612        C613   1.409       .  A
C612        C615   1.490       .  S
C613        C614   1.403       .  A
C613        H625   1.082       .  S
C614        H626   1.083       .  S
C615        C616   1.350   1_655  D
C615        H627   1.083       .  S
C616        C617   1.496       .  S
C616        H628   1.085       .  S
C617        C618   1.405       .  A
C617        C622   1.411   1_455  A
C618        C619   1.400       .  A
C618        H629   1.083       .  S
C619        C620   1.406       .  A
C619        H630   1.083       .  S
C620        C621   1.405   1_455  A
C621        C622   1.401       .  A
C621        H631   1.083       .  S
C622        H632   1.079       .  S
C633        C634   1.406       .  A
C633        C638   1.406       .  A
C634        C635   1.401       .  A
C634        H647   1.083       .  S
C635        C636   1.406       .  A
C635        H648   1.083       .  S
C636        C637   1.409       .  A
C636        C639   1.494       .  S
C637        C638   1.397       .  A
C637        H649   1.080   1_655  S
C638        H650   1.083   1_655  S
C639        C640   1.350   1_655  D
C639        H651   1.085       .  S
C640        C641   1.490       .  S
C640        H652   1.083       .  S
C641        C642   1.404       .  A
C641        C646   1.408   1_455  A
C642        C643   1.398       .  A
C642        H653   1.084       .  S
C643        C644   1.406       .  A
C643        H654   1.083       .  S
C644        C645   1.407       .  A
C645        C646   1.402   1_455  A
C645        H655   1.083   1_455  S
C646        H656   1.081       .  S
C657        C658   1.406   1_455  A
C657        C662   1.407       .  A
C658        C659   1.395       .  A
C658        H671   1.083       .  S
C659        C660   1.401   1_655  A
C659        H672   1.084       .  S
C660        C661   1.409       .  A
C660        C663   1.487       .  S
C661        C662   1.404       .  A
C661        H673   1.082       .  S
C662        H674   1.083       .  S
C663        C664   1.348       .  D
C663        H675   1.084   1_455  S
C664        C665   1.492   1_455  S
C664        H676   1.086       .  S
C665        C666   1.403   1_655  A
C665        C670   1.410       .  A
C666        C667   1.400   1_455  A
C666        H677   1.083       .  S
C667        C668   1.407       .  A
C667        H678   1.083   1_655  S
C668        C669   1.405       .  A
C669        C670   1.400       .  A
C669        H679   1.083       .  S
C670        H680   1.081       .  S
C681        C682   1.405       .  A
C681        C686   1.407   1_455  A
C682        C683   1.397       .  A
C682        H695   1.083       .  S
C683        C684   1.404       .  A
C683        H696   1.083       .  S
C684        C685   1.410   1_455  A
C684        C687   1.492       .  S
C685        C686   1.403       .  A
C685        H697   1.081       .  S
C686        H698   1.083       .  S
C687        C688   1.350   1_455  D
C687        H699   1.084       .  S
C688        C689   1.493       .  S
C688        H700   1.084       .  S
C689        C690   1.404       .  A
C689        C694   1.409       .  A
C690        C691   1.400       .  A
C690        H701   1.083       .  S
C691        C692   1.408       .  A
C691        H702   1.083       .  S
C692        C693   1.406       .  A
C693        C694   1.401       .  A
C693        H703   1.083   1_655  S
C694        H704   1.081   1_655  S
C705        C706   1.406       .  A
C705        C710   1.406       .  A
C706        C707   1.399       .  A
C706        H719   1.083       .  S
C707        C708   1.404       .  A
C707        H720   1.083       .  S
C708        C709   1.408   1_655  A
C708        C711   1.489       .  S
C709        C710   1.398   1_455  A
C709        H721   1.080       .  S
C710        H722   1.083   1_655  S
C711        C712   1.349   1_655  D
C711        H723   1.085       .  S
C712        C713   1.486       .  S
C712        H724   1.084       .  S
C713        C714   1.403       .  A
C713        C718   1.407       .  A
C714        C715   1.398       .  A
C714        H725   1.083       .  S
C715        C716   1.406       .  A
C715        H726   1.083       .  S
C716        C717   1.406       .  A
C717        C718   1.399       .  A
C717        H727   1.083   1_455  S
C718        H728   1.082   1_455  S
C729        C730   1.404       .  A
C729        C734   1.405       .  A
C730        C731   1.393       .  A
C730        H743   1.083       .  S
C731        C732   1.401       .  A
C731        H744   1.084       .  S
C732        C733   1.408       .  A
C732        C735   1.482       .  S
C733        C734   1.403       .  A
C733        H745   1.082       .  S
C734        H746   1.083       .  S
C735        C736   1.347       .  D
C735        H747   1.085       .  S
C736        C737   1.488       .  S
C736        H748   1.086       .  S
C737        C738   1.406       .  A
C737        C742   1.406       .  A
C738        C739   1.402       .  A
C738        H749   1.083       .  S
C739        C740   1.406       .  A
C739        H750   1.083       .  S
C740        C741   1.406       .  A
C741        C742   1.393       .  A
C741        H751   1.083       .  S
C742        H752   1.081       .  S
C753        C754   1.406       .  A
C753        C758   1.407       .  A
C754        C755   1.400       .  A
C754        H767   1.083       .  S
C755        C756   1.403       .  A
C755        H768   1.083       .  S
C756        C757   1.405       .  A
C756        C759   1.483       .  S
C757        C758   1.398       .  A
C757        H769   1.083       .  S
C758        H770   1.083       .  S
C759        C760   1.347       .  D
C759        H771   1.086       .  S
C760        C761   1.484       .  S
C760        H772   1.086       .  S
C761        C762   1.404       .  A
C761        C766   1.404       .  A
C762        C763   1.402       .  A
C762        H773   1.083       .  S
C763        C764   1.406       .  A
C763        H774   1.083       .  S
C764        C765   1.407       .  A
C765        C766   1.395       .  A
C765        H775   1.083       .  S
C766        H776   1.082       .  S
C777        C778   1.406       .  A
C777        C782   1.406       .  A
C778        C779   1.402       .  A
C778        H791   1.083       .  S
C779        C780   1.405       .  A
C779        H792   1.083       .  S
C780        C781   1.407       .  A
C780        C783   1.489       .  S
C781        C782   1.396       .  A
C781        H793   1.081       .  S
C782        H794   1.083       .  S
C783        C784   1.350       .  D
C783        H795   1.084       .  S
C784        C785   1.489       .  S
C784        H796   1.085       .  S
C785        C786   1.405       .  A
C785        C790   1.408       .  A
C786        C787   1.398       .  A
C786        H797   1.083       .  S
C787        C788   1.405       .  A
C787        H798   1.083       .  S
C788        C789   1.407       .  A
C789        C790   1.400       .  A
C789        H799   1.083       .  S
C790        H800   1.080       .  S
C801        C802   1.406       .  A
C801        C806   1.407       .  A
C802        C803   1.401       .  A
C802        H815   1.083       .  S
C803        C804   1.404       .  A
C803        H816   1.083       .  S
C804        C805   1.409       .  A
C804        C807   1.493       .  S
C805        C806   1.401       .  A
C805        H817   1.081       .  S
C806        H818   1.083       .  S
C807        C808   1.350       .  D
C807        H819   1.085       .  S
C808        C809   1.491       .  S
C808        H820   1.084       .  S
C809        C810   1.403       .  A
C809        C814   1.409       .  A
C810        C811   1.398       .  A
C810        H821   1.083       .  S
C811        C812   1.406       .  A
C811        H822   1.083       .  S
C812        C813   1.408       .  A
C813        C814   1.403       .  A
C813        H823   1.083       .  S
C814        H824   1.082       .  S
C825        C826   1.406       .  A
C825        C830   1.408       .  A
C826        C827   1.398       .  A
C826        H839   1.083       .  S
C827        C828   1.404       .  A
C827        H840   1.083       .  S
C828        C829   1.409       .  A
C828        C831   1.492       .  S
C829        C830   1.403       .  A
C829        H841   1.081       .  S
C830        H842   1.083       .  S
C831        C832   1.351       .  D
C831        H843   1.085       .  S
C832        C833   1.492       .  S
C832        H844   1.084       .  S
C833        C834   1.405       .  A
C833        C838   1.408       .  A
C834        C835   1.402       .  A
C834        H845   1.083       .  S
C835        C836   1.406       .  A
C835        H846   1.083       .  S
C836        C837   1.408       .  A
C837        C838   1.399       .  A
C837        H847   1.083       .  S
C838        H848   1.081       .  S
C849        C850   1.404       .  A
C849        C854   1.408       .  A
C850        C851   1.403       .  A
C850        H863   1.083       .  S
C851        C852   1.406       .  A
C851        H864   1.083       .  S
C852        C853   1.404       .  A
C852        C855   1.486       .  S
C853        C854   1.395       .  A
C853        H865   1.082       .  S
C854        H866   1.083       .  S
C855        C856   1.350       .  D
C855        H867   1.086       .  S
C856        C857   1.486       .  S
C856        H868   1.086       .  S
C857        C858   1.405       .  A
C857        C862   1.404       .  A
C858        C859   1.403       .  A
C858        H869   1.083       .  S
C859        C860   1.407       .  A
C859        H870   1.083       .  S
C860        C861   1.407       .  A
C861        C862   1.395       .  A
C861        H871   1.083       .  S
C862        H872   1.082       .  S
C873        C874   1.406       .  A
C873        C878   1.407       .  A
C874        C875   1.401       .  A
C874        H887   1.083       .  S
C875        C876   1.404       .  A
C875        H888   1.083       .  S
C876        C877   1.404       .  A
C876        C879   1.483       .  S
C877        C878   1.394       .  A
C877        H889   1.082       .  S
C878        H890   1.083       .  S
C879        C880   1.347       .  D
C879        H891   1.086       .  S
C880        C881   1.482   1_655  S
C880        H892   1.086       .  S
C881        C882   1.404       .  A
C881        C886   1.405       .  A
C882        C883   1.399       .  A
C882        H893   1.083       .  S
C883        C884   1.405       .  A
C883        H894   1.083       .  S
C884        C885   1.407       .  A
C885        C886   1.397       .  A
C885        H895   1.083       .  S
C886        H896   1.082       .  S
C897        C898   1.406       .  A
C897        C902   1.404       .  A
C898        C899   1.393       .  A
C898        H911   1.084       .  S
C899        C900   1.400       .  A
C899        H912   1.084       .  S
C900        C901   1.410       .  A
C900        C903   1.483       .  S
C901        C902   1.405       .  A
C901        H913   1.082       .  S
C902        H914   1.083       .  S
C903        C904   1.345       .  D
C903        H915   1.085   1_554  S
C904        C905   1.488       .  S
C904        H916   1.086       .  S
C905        C906   1.403       .  A
C905        C910   1.408       .  A
C906        C907   1.398       .  A
C906        H917   1.083       .  S
C907        C908   1.407       .  A
C907        H918   1.083       .  S
C908        C909   1.406       .  A
C909        C910   1.399       .  A
C909        H919   1.083   1_554  S
C910        H920   1.081   1_554  S
C921        C922   1.409       .  A
C921        C926   1.406       .  A
C922        C923   1.395       .  A
C922        H935   1.083       .  S
C923        C924   1.400       .  A
C923        H936   1.084       .  S
C924        C925   1.411       .  A
C924        C927   1.490       .  S
C925        C926   1.407       .  A
C925        H937   1.082       .  S
C926        H938   1.083       .  S
C927        C928   1.344       .  D
C927        H939   1.086       .  S
C928        C929   1.489       .  S
C928        H940   1.086       .  S
C929        C930   1.399       .  A
C929        C934   1.411       .  A
C930        C931   1.395       .  A
C930        H941   1.084       .  S
C931        C932   1.409       .  A
C931        H942   1.083       .  S
C932        C933   1.406       .  A
C933        C934   1.407       .  A
C933        H943   1.083       .  S
C934        H944   1.082       .  S
C945        C946   1.409       .  A
C945        C950   1.407       .  A
C946        C947   1.394       .  A
C946        H959   1.083       .  S
C947        C948   1.399       .  A
C947        H960   1.084       .  S
C948        C949   1.411       .  A
C948        C951   1.489       .  S
C949        C950   1.408       .  A
C949        H961   1.082   1_556  S
C950        H962   1.083   1_556  S
C951        C952   1.344       .  D
C951        H963   1.086       .  S
C952        C953   1.489       .  S
C952        H964   1.086       .  S
C953        C954   1.399       .  A
C953        C958   1.410       .  A
C954        C955   1.395       .  A
C954        H965   1.084       .  S
C955        C956   1.409       .  A
C955        H966   1.083       .  S
C956        C957   1.407       .  A
C957        C958   1.407       .  A
C957        H967   1.083       .  S
C958        H968   1.082   1_556  S
C969        C970   1.406   1_556  A
C969        C974   1.408       .  A
C970        C971   1.401       .  A
C970        H983   1.083       .  S
C971        C972   1.405   1_554  A
C971        H984   1.083       .  S
C972        C973   1.408       .  A
C972        C975   1.491   1_556  S
C973        C974   1.400       .  A
C973        H985   1.081       .  S
C974        H986   1.083       .  S
C975        C976   1.351   1_564  D
C975        H987   1.085   1_565  S
C976        C977   1.491   1_556  S
C976        H988   1.085   1_545  S
C977        C978   1.404   1_554  A
C977        C982   1.408       .  A
C978        C979   1.400       .  A
C978        H989   1.083       .  S
C979        C980   1.406   1_556  A
C979        H990   1.083       .  S
C980        C981   1.408       .  A
C981        C982   1.400       .  A
C981        H991   1.083       .  S
C982        H992   1.081       .  S
C993        C994   1.407       .  A
C993        C998   1.404       .  A
C994        C995   1.393       .  A
C994       H1007   1.083       .  S
C995        C996   1.399       .  A
C995       H1008   1.084       .  S
C996        C997   1.410       .  A
C996        C999   1.482       .  S
C997        C998   1.402       .  A
C997       H1009   1.082       .  S
C998       H1010   1.083       .  S
C999       C1000   1.343       .  D
C999       H1011   1.086   1_556  S
C1000      C1001   1.484       .  S
C1000      H1012   1.087       .  S
C1001      C1002   1.400       .  A
C1001      C1006   1.409   1_556  A
C1002      C1003   1.393       .  A
C1002      H1013   1.084       .  S
C1003      C1004   1.407       .  A
C1003      H1014   1.083       .  S
C1004      C1005   1.406       .  A
C1005      C1006   1.402   1_556  A
C1005      H1015   1.083   1_556  S
C1006      H1016   1.082       .  S
C1017      C1018   1.405       .  A
C1017      C1022   1.408       .  A
C1018      C1019   1.402       .  A
C1018      H1031   1.083   1_556  S
C1019      C1020   1.406       .  A
C1019      H1032   1.083   1_556  S
C1020      C1021   1.406       .  A
C1020      C1023   1.489       .  S
C1021      C1022   1.395       .  A
C1021      H1033   1.081       .  S
C1022      H1034   1.083       .  S
C1023      C1024   1.348       .  D
C1023      H1035   1.086   1_556  S
C1024      C1025   1.485   1_455  S
C1024      H1036   1.085       .  S
C1025      C1026   1.402       .  A
C1025      C1030   1.408       .  A
C1026      C1027   1.395       .  A
C1026      H1037   1.083       .  S
C1027      C1028   1.405       .  A
C1027      H1038   1.083       .  S
C1028      C1029   1.405       .  A
C1029      C1030   1.402       .  A
C1029      H1039   1.083   1_556  S
C1030      H1040   1.082   1_556  S
C1041      C1042   1.409       .  A
C1041      C1046   1.405       .  A
C1042      C1043   1.393       .  A
C1042      H1055   1.083       .  S
C1043      C1044   1.398       .  A
C1043      H1056   1.084       .  S
C1044      C1045   1.410       .  A
C1044      C1047   1.484       .  S
C1045      C1046   1.404       .  A
C1045      H1057   1.082       .  S
C1046      H1058   1.083       .  S
C1047      C1048   1.342       .  D
C1047      H1059   1.086       .  S
C1048      C1049   1.484       .  S
C1048      H1060   1.086       .  S
C1049      C1050   1.398       .  A
C1049      C1054   1.410       .  A
C1050      C1051   1.393       .  A
C1050      H1061   1.084       .  S
C1051      C1052   1.409       .  A
C1051      H1062   1.083       .  S
C1052      C1053   1.406       .  A
C1053      C1054   1.404       .  A
C1053      H1063   1.083   1_556  S
C1054      H1064   1.082   1_556  S
C1065      C1066   1.407       .  A
C1065      C1070   1.406       .  A
C1066      C1067   1.396       .  A
C1066      H1079   1.083       .  S
C1067      C1068   1.401       .  A
C1067      H1080   1.084       .  S
C1068      C1069   1.408       .  A
C1068      C1071   1.485       .  S
C1069      C1070   1.400       .  A
C1069      H1081   1.082   1_554  S
C1070      H1082   1.083   1_554  S
C1071      C1072   1.347   1_544  D
C1071      H1083   1.084   1_545  S
C1072      C1073   1.487       .  S
C1072      H1084   1.085   1_565  S
C1073      C1074   1.402       .  A
C1073      C1078   1.409   1_556  A
C1074      C1075   1.397       .  A
C1074      H1085   1.084       .  S
C1075      C1076   1.407       .  A
C1075      H1086   1.083       .  S
C1076      C1077   1.405   1_556  A
C1077      C1078   1.399       .  A
C1077      H1087   1.083       .  S
C1078      H1088   1.081       .  S
C1089      C1090   1.405       .  A
C1089      C1094   1.405       .  A
C1090      C1091   1.402       .  A
C1090      H1103   1.083       .  S
C1091      C1092   1.405       .  A
C1091      H1104   1.083       .  S
C1092      C1093   1.404       .  A
C1092      C1095   1.482       .  S
C1093      C1094   1.391       .  A
C1093      H1105   1.082       .  S
C1094      H1106   1.083       .  S
C1095      C1096   1.347       .  D
C1095      H1107   1.086       .  S
C1096      C1097   1.480       .  S
C1096      H1108   1.086       .  S
C1097      C1098   1.403       .  A
C1097      C1102   1.405       .  A
C1098      C1099   1.397       .  A
C1098      H1109   1.083       .  S
C1099      C1100   1.404       .  A
C1099      H1110   1.083       .  S
C1100      C1101   1.408       .  A
C1101      C1102   1.396       .  A
C1101      H1111   1.083       .  S
C1102      H1112   1.082       .  S
C1113      C1114   1.407       .  A
C1113      C1118   1.407       .  A
C1114      C1115   1.396       .  A
C1114      H1127   1.083       .  S
C1115      C1116   1.401       .  A
C1115      H1128   1.084       .  S
C1116      C1117   1.410       .  A
C1116      C1119   1.489       .  S
C1117      C1118   1.404       .  A
C1117      H1129   1.082       .  S
C1118      H1130   1.083       .  S
C1119      C1120   1.348       .  D
C1119      H1131   1.084       .  S
C1120      C1121   1.493       .  S
C1120      H1132   1.085       .  S
C1121      C1122   1.403       .  A
C1121      C1126   1.410       .  A
C1122      C1123   1.398       .  A
C1122      H1133   1.083       .  S
C1123      C1124   1.407       .  A
C1123      H1134   1.083       .  S
C1124      C1125   1.406       .  A
C1125      C1126   1.402       .  A
C1125      H1135   1.083       .  S
C1126      H1136   1.080       .  S
C1137      C1138   1.405       .  A
C1137      C1142   1.408       .  A
C1138      C1139   1.398       .  A
C1138      H1151   1.083       .  S
C1139      C1140   1.405       .  A
C1139      H1152   1.083       .  S
C1140      C1141   1.410       .  A
C1140      C1143   1.494       .  S
C1141      C1142   1.403       .  A
C1141      H1153   1.080       .  S
C1142      H1154   1.083       .  S
C1143      C1144   1.351       .  D
C1143      H1155   1.085       .  S
C1144      C1145   1.494       .  S
C1144      H1156   1.083       .  S
C1145      C1146   1.405       .  A
C1145      C1150   1.408       .  A
C1146      C1147   1.402       .  A
C1146      H1157   1.083       .  S
C1147      C1148   1.407       .  A
C1147      H1158   1.083       .  S
C1148      C1149   1.406       .  A
C1149      C1150   1.399       .  A
C1149      H1159   1.083       .  S
C1150      H1160   1.081       .  S
C1161      C1162   1.406       .  A
C1161      C1166   1.406       .  A
C1162      C1163   1.400       .  A
C1162      H1175   1.083       .  S
C1163      C1164   1.403       .  A
C1163      H1176   1.083       .  S
C1164      C1165   1.404       .  A
C1164      C1167   1.480       .  S
C1165      C1166   1.394       .  A
C1165      H1177   1.083       .  S
C1166      H1178   1.083       .  S
C1167      C1168   1.346       .  D
C1167      H1179   1.086       .  S
C1168      C1169   1.480       .  S
C1168      H1180   1.087       .  S
C1169      C1170   1.404       .  A
C1169      C1174   1.404       .  A
C1170      C1171   1.399       .  A
C1170      H1181   1.083       .  S
C1171      C1172   1.405       .  A
C1171      H1182   1.083       .  S
C1172      C1173   1.406       .  A
C1173      C1174   1.394       .  A
C1173      H1183   1.083       .  S
C1174      H1184   1.082       .  S
C1185      C1186   1.405       .  A
C1185      C1190   1.407       .  A
C1186      C1187   1.400       .  A
C1186      H1199   1.083       .  S
C1187      C1188   1.404       .  A
C1187      H1200   1.083       .  S
C1188      C1189   1.406       .  A
C1188      C1191   1.485   1_655  S
C1189      C1190   1.398       .  A
C1189      H1201   1.082       .  S
C1190      H1202   1.083       .  S
C1191      C1192   1.349       .  D
C1191      H1203   1.086       .  S
C1192      C1193   1.487       .  S
C1192      H1204   1.086       .  S
C1193      C1194   1.406       .  A
C1193      C1198   1.405       .  A
C1194      C1195   1.403       .  A
C1194      H1205   1.083       .  S
C1195      C1196   1.405       .  A
C1195      H1206   1.083       .  S
C1196      C1197   1.407       .  A
C1197      C1198   1.394       .  A
C1197      H1207   1.083       .  S
C1198      H1208   1.082       .  S
C1209      C1210   1.407       .  A
C1209      C1214   1.407       .  A
C1210      C1211   1.393       .  A
C1210      H1223   1.083       .  S
C1211      C1212   1.399       .  A
C1211      H1224   1.084       .  S
C1212      C1213   1.410       .  A
C1212      C1215   1.485       .  S
C1213      C1214   1.406       .  A
C1213      H1225   1.082       .  S
C1214      H1226   1.083       .  S
C1215      C1216   1.343       .  D
C1215      H1227   1.086       .  S
C1216      C1217   1.488       .  S
C1216      H1228   1.087       .  S
C1217      C1218   1.400       .  A
C1217      C1222   1.410       .  A
C1218      C1219   1.395       .  A
C1218      H1229   1.084       .  S
C1219      C1220   1.409       .  A
C1219      H1230   1.083       .  S
C1220      C1221   1.406       .  A
C1221      C1222   1.404       .  A
C1221      H1231   1.083       .  S
C1222      H1232   1.082       .  S
C1233      C1234   1.407       .  A
C1233      C1238   1.408       .  A
C1234      C1235   1.396       .  A
C1234      H1247   1.083       .  S
C1235      C1236   1.402       .  A
C1235      H1248   1.084       .  S
C1236      C1237   1.410       .  A
C1236      C1239   1.490       .  S
C1237      C1238   1.406       .  A
C1237      H1249   1.082       .  S
C1238      H1250   1.083       .  S
C1239      C1240   1.350       .  D
C1239      H1251   1.082       .  S
C1240      C1241   1.498       .  S
C1240      H1252   1.085       .  S
C1241      C1242   1.405       .  A
C1241      C1246   1.411       .  A
C1242      C1243   1.401       .  A
C1242      H1253   1.083       .  S
C1243      C1244   1.406       .  A
C1243      H1254   1.083       .  S
C1244      C1245   1.406       .  A
C1245      C1246   1.400       .  A
C1245      H1255   1.083       .  S
C1246      H1256   1.079       .  S
C1257      C1258   1.406       .  A
C1257      C1262   1.406       .  A
C1258      C1259   1.399       .  A
C1258      H1271   1.083       .  S
C1259      C1260   1.405       .  A
C1259      H1272   1.083       .  S
C1260      C1261   1.409       .  A
C1260      C1263   1.493       .  S
C1261      C1262   1.400       .  A
C1261      H1273   1.080       .  S
C1262      H1274   1.083       .  S
C1263      C1264   1.350       .  D
C1263      H1275   1.085       .  S
C1264      C1265   1.490       .  S
C1264      H1276   1.084       .  S
C1265      C1266   1.404       .  A
C1265      C1270   1.408       .  A
C1266      C1267   1.399       .  A
C1266      H1277   1.083       .  S
C1267      C1268   1.407       .  A
C1267      H1278   1.083       .  S
C1268      C1269   1.407       .  A
C1269      C1270   1.400       .  A
C1269      H1279   1.083       .  S
C1270      H1280   1.081       .  S
C1281      C1282   1.406       .  A
C1281      C1286   1.410       .  A
C1282      C1283   1.405       .  A
C1282      H1295   1.083       .  S
C1283      C1284   1.407       .  A
C1283      H1296   1.083       .  S
C1284      C1285   1.404       .  A
C1284      C1287   1.491       .  S
C1285      C1286   1.399       .  A
C1285      H1297   1.082       .  S
C1286      H1298   1.083       .  S
C1287      C1288   1.352       .  D
C1287      H1299   1.086       .  S
C1288      C1289   1.491       .  S
C1288      H1300   1.086       .  S
C1289      C1290   1.407       .  A
C1289      C1294   1.404       .  A
C1290      C1291   1.406       .  A
C1290      H1301   1.083       .  S
C1291      C1292   1.406       .  A
C1291      H1302   1.083       .  S
C1292      C1293   1.409       .  A
C1293      C1294   1.398       .  A
C1293      H1303   1.083       .  S
C1294      H1304   1.083       .  S
C1305      C1306   1.407       .  A
C1305      C1310   1.407       .  A
C1306      C1307   1.395       .  A
C1306      H1319   1.083       .  S
C1307      C1308   1.402       .  A
C1307      H1320   1.084       .  S
C1308      C1309   1.411       .  A
C1308      C1311   1.491       .  S
C1309      C1310   1.406       .  A
C1309      H1321   1.081       .  S
C1310      H1322   1.083       .  S
C1311      C1312   1.348       .  D
C1311      H1323   1.084       .  S
C1312      C1313   1.494       .  S
C1312      H1324   1.085       .  S
C1313      C1314   1.403       .  A
C1313      C1318   1.411       .  A
C1314      C1315   1.399       .  A
C1314      H1325   1.083       .  S
C1315      C1316   1.408       .  A
C1315      H1326   1.083       .  S
C1316      C1317   1.405       .  A
C1317      C1318   1.401       .  A
C1317      H1327   1.083       .  S
C1318      H1328   1.081       .  S
C1329      C1330   1.406       .  A
C1329      C1334   1.408       .  A
C1330      C1331   1.399       .  A
C1330      H1343   1.083       .  S
C1331      C1332   1.403       .  A
C1331      H1344   1.083       .  S
C1332      C1333   1.408       .  A
C1332      C1335   1.491       .  S
C1333      C1334   1.402       .  A
C1333      H1345   1.082       .  S
C1334      H1346   1.083       .  S
C1335      C1336   1.350       .  D
C1335      H1347   1.084       .  S
C1336      C1337   1.493       .  S
C1336      H1348   1.085       .  S
C1337      C1338   1.404       .  A
C1337      C1342   1.410       .  A
C1338      C1339   1.399       .  A
C1338      H1349   1.083       .  S
C1339      C1340   1.406       .  A
C1339      H1350   1.083       .  S
C1340      C1341   1.406       .  A
C1341      C1342   1.401       .  A
C1341      H1351   1.083       .  S
C1342      H1352   1.081       .  S
C1353      C1354   1.407       .  A
C1353      C1358   1.406       .  A
C1354      C1355   1.397       .  A
C1354      H1367   1.083       .  S
C1355      C1356   1.402       .  A
C1355      H1368   1.084       .  S
C1356      C1357   1.409       .  A
C1356      C1359   1.489       .  S
C1357      C1358   1.402       .  A
C1357      H1369   1.081       .  S
C1358      H1370   1.083       .  S
C1359      C1360   1.348   1_565  D
C1359      H1371   1.085   1_565  S
C1360      C1361   1.489       .  S
C1360      H1372   1.085       .  S
C1361      C1362   1.402       .  A
C1361      C1366   1.409       .  A
C1362      C1363   1.397       .  A
C1362      H1373   1.083       .  S
C1363      C1364   1.407       .  A
C1363      H1374   1.083       .  S
C1364      C1365   1.406       .  A
C1365      C1366   1.402       .  A
C1365      H1375   1.083       .  S
C1366      H1376   1.081       .  S
C1377      C1378   1.406       .  A
C1377      C1382   1.405       .  A
C1378      C1379   1.396       .  A
C1378      H1391   1.083       .  S
C1379      C1380   1.402       .  A
C1379      H1392   1.083       .  S
C1380      C1381   1.409       .  A
C1380      C1383   1.487   1_455  S
C1381      C1382   1.399       .  A
C1381      H1393   1.081       .  S
C1382      H1394   1.083       .  S
C1383      C1384   1.343       .  D
C1383      H1395   1.087       .  S
C1384      C1385   1.481       .  S
C1384      H1396   1.085       .  S
C1385      C1386   1.398       .  A
C1385      C1390   1.410       .  A
C1386      C1387   1.391       .  A
C1386      H1397   1.084       .  S
C1387      C1388   1.406       .  A
C1387      H1398   1.083       .  S
C1388      C1389   1.405       .  A
C1389      C1390   1.405       .  A
C1389      H1399   1.083       .  S
C1390      H1400   1.082       .  S
C1401      C1402   1.405       .  A
C1401      C1406   1.406       .  A
C1402      C1403   1.403       .  A
C1402      H1415   1.083       .  S
C1403      C1404   1.406       .  A
C1403      H1416   1.083       .  S
C1404      C1405   1.404       .  A
C1404      C1407   1.485       .  S
C1405      C1406   1.392       .  A
C1405      H1417   1.082       .  S
C1406      H1418   1.083       .  S
C1407      C1408   1.347       .  D
C1407      H1419   1.086       .  S
C1408      C1409   1.481       .  S
C1408      H1420   1.086       .  S
C1409      C1410   1.402       .  A
C1409      C1414   1.406       .  A
C1410      C1411   1.396       .  A
C1410      H1421   1.083       .  S
C1411      C1412   1.406       .  A
C1411      H1422   1.083       .  S
C1412      C1413   1.407       .  A
C1413      C1414   1.399       .  A
C1413      H1423   1.083       .  S
C1414      H1424   1.082       .  S
C1425      C1426   1.409       .  A
C1425      C1430   1.407       .  A
C1426      C1427   1.395       .  A
C1426      H1439   1.083       .  S
C1427      C1428   1.399       .  A
C1427      H1440   1.083       .  S
C1428      C1429   1.410       .  A
C1428      C1431   1.487       .  S
C1429      C1430   1.405       .  A
C1429      H1441   1.082       .  S
C1430      H1442   1.083       .  S
C1431      C1432   1.343       .  D
C1431      H1443   1.086       .  S
C1432      C1433   1.486       .  S
C1432      H1444   1.086       .  S
C1433      C1434   1.399       .  A
C1433      C1438   1.410       .  A
C1434      C1435   1.394       .  A
C1434      H1445   1.084       .  S
C1435      C1436   1.408       .  A
C1435      H1446   1.083       .  S
C1436      C1437   1.406       .  A
C1437      C1438   1.406       .  A
C1437      H1447   1.083       .  S
C1438      H1448   1.082       .  S
C1449      C1450   1.406       .  A
C1449      C1454   1.408       .  A
C1450      C1451   1.398       .  A
C1450      H1463   1.083       .  S
C1451      C1452   1.403       .  A
C1451      H1464   1.083       .  S
C1452      C1453   1.410       .  A
C1452      C1455   1.494       .  S
C1453      C1454   1.405       .  A
C1453      H1465   1.082       .  S
C1454      H1466   1.083       .  S
C1455      C1456   1.351       .  D
C1455      H1467   1.083       .  S
C1456      C1457   1.498       .  S
C1456      H1468   1.085       .  S
C1457      C1458   1.405       .  A
C1457      C1462   1.411       .  A
C1458      C1459   1.400       .  A
C1458      H1469   1.083       .  S
C1459      C1460   1.407       .  A
C1459      H1470   1.083       .  S
C1460      C1461   1.407       .  A
C1461      C1462   1.403       .  A
C1461      H1471   1.083       .  S
C1462      H1472   1.080       .  S
C1473      C1474   1.406       .  A
C1473      C1478   1.406       .  A
C1474      C1475   1.402       .  A
C1474      H1487   1.083       .  S
C1475      C1476   1.406       .  A
C1475      H1488   1.083       .  S
C1476      C1477   1.408       .  A
C1476      C1479   1.491       .  S
C1477      C1478   1.397       .  A
C1477      H1489   1.081       .  S
C1478      H1490   1.083       .  S
C1479      C1480   1.350       .  D
C1479      H1491   1.085       .  S
C1480      C1481   1.488       .  S
C1480      H1492   1.084       .  S
C1481      C1482   1.404       .  A
C1481      C1486   1.407       .  A
C1482      C1483   1.398       .  A
C1482      H1493   1.083       .  S
C1483      C1484   1.406       .  A
C1483      H1494   1.083       .  S
C1484      C1485   1.407       .  A
C1485      C1486   1.400       .  A
C1485      H1495   1.083       .  S
C1486      H1496   1.081       .  S
C1497      C1498   1.406       .  A
C1497      C1502   1.406       .  A
C1498      C1499   1.398       .  A
C1498      H1511   1.083       .  S
C1499      C1500   1.404       .  A
C1499      H1512   1.083       .  S
C1500      C1501   1.409       .  A
C1500      C1503   1.489       .  S
C1501      C1502   1.399       .  A
C1501      H1513   1.081       .  S
C1502      H1514   1.083       .  S
C1503      C1504   1.348   1_565  D
C1503      H1515   1.085   1_565  S
C1504      C1505   1.487       .  S
C1504      H1516   1.084   1_545  S
C1505      C1506   1.403       .  A
C1505      C1510   1.408       .  A
C1506      C1507   1.397       .  A
C1506      H1517   1.083       .  S
C1507      C1508   1.406       .  A
C1507      H1518   1.083       .  S
C1508      C1509   1.406       .  A
C1509      C1510   1.399       .  A
C1509      H1519   1.083       .  S
C1510      H1520   1.081       .  S
