geometry optimzed in LAMMPS
_audit_creation_date              2020-12-01 
_audit_creation_method            'lammps2cif' 
_symmetry_space_group_name_H-M    'P1' 
_symmetry_Int_Tables_number       1 
_symmetry_cell_setting            triclinic 
loop_ 
_symmetry_equiv_pos_as_xyz 
  x,y,z 
_cell_length_a                    58.80410903 
_cell_length_b                    59.32277146756729 
_cell_length_c                    23.96313900841784 
_cell_angle_alpha                 89.76849556842045 
_cell_angle_beta                  89.96498029270558 
_cell_angle_gamma                 122.38581887958566 
loop_ 
_atom_site_label 
_atom_site_type_symbol 
_atom_site_fract_x 
_atom_site_fract_y 
_atom_site_fract_z 
_atom_site_charge 
O1          O  0.99336017  0.42576996  0.34482649    -0.56900
C2          C  0.00849641  0.46892702  0.49195122     0.75700
O3          O  0.95300853  0.41367466  0.43596410    -0.58100
C4          C  0.98945919  0.40331316  0.33128954     0.75700
C5          C  0.05048511  0.43565231  0.46631679     0.78100
Cd6        Cd  0.99684732  0.42109274  0.44288087     1.37500
O7          O  0.00833027  0.46640614  0.43927980    -0.56900
O8          O  0.04433182  0.44579838  0.42718406    -0.55700
C9          C  0.94146480  0.39605813  0.47359566     0.78000
O10         O  0.03106649  0.41618663  0.49322409    -0.58100
O11         O  0.00343939  0.44910253  0.52190961    -0.56500
O12         O  0.98958519  0.38868593  0.37007501    -0.56500
O13         O  0.95547837  0.38796773  0.49659753    -0.55700
O14         O  0.00768146  0.61675089  0.62859222    -0.56900
C15         C  0.01193784  0.56368769  0.54035885     0.75700
O16         O  0.97332237  0.60298919  0.46541430    -0.58100
C17         C  0.00991404  0.63911482  0.62508373     0.75700
C18         C  0.06381982  0.63764577  0.48602484     0.78100
Cd19       Cd  0.00948834  0.60958396  0.53123596     1.37500
O20         O  0.01058945  0.57466682  0.58445809    -0.56900
O21         O  0.05728456  0.63027655  0.53609598    -0.55700
C22         C  0.95485957  0.58228148  0.49086474     0.78000
O23         O  0.04472229  0.63417401  0.45465873    -0.58100
O24         O  0.01098683  0.57344351  0.49402951    -0.56500
O25         O  0.01212678  0.64881678  0.57663780    -0.56500
O26         O  0.96198185  0.57550780  0.53419141    -0.55700
O27         O  0.99243344  0.42417787  0.07821063    -0.56900
C28         C  0.00384693  0.46985264  0.97162154     0.75700
O29         O  0.04237905  0.42823358  0.92683464    -0.58100
C30         C  0.99256832  0.40400963  0.09518190     0.75700
C31         C  0.95157226  0.38801353  0.93155651     0.78100
Cd32       Cd  0.00299279  0.42225403  0.98270656     1.37500
O33         O  0.99633085  0.45659730  0.01678162    -0.56900
O34         O  0.96761771  0.41163771  0.91488645    -0.55700
C35         C  0.05943290  0.44609677  0.95979487     0.78000
O36         O  0.96154247  0.37819178  0.96284914    -0.58100
O37         O  0.01001776  0.46037326  0.93138411    -0.56500
O38         O  0.99802255  0.39181141  0.05940285    -0.56500
O39         O  0.05015477  0.44947598  0.00417114    -0.55700
O40         O  0.02001255  0.62635377  0.84661987    -0.56900
C41         C  0.02026715  0.57422103  0.94750107     0.75700
O42         O  0.06299056  0.65122954  0.01035900    -0.58100
C43         C  0.02023059  0.64777151  0.84604944     0.75700
C44         C  0.97104819  0.59947223  0.99074449     0.78100
Cd45       Cd  0.02456912  0.62369419  0.94433199     1.37500
O46         O  0.02345385  0.58596284  0.90109176    -0.56900
O47         O  0.97690829  0.59028309  0.94965354    -0.55700
C48         C  0.08054069  0.65221322  0.97745848     0.78000
O49         O  0.99011867  0.62119456  0.01169530    -0.58100
O50         O  0.01967102  0.58603058  0.99082688    -0.56500
O51         O  0.02343607  0.65952352  0.89218986    -0.56500
O52         O  0.07222538  0.64214844  0.92978405    -0.55700
C53         C  0.36021559  0.86276679  0.94459025     0.87400
C54         C  0.36008853  0.86009919  0.88103129    -0.52800
C55         C  0.35683407  0.83691583  0.86265542     0.10300
C56         C  0.35530028  0.81828289  0.91050408     0.21300
C57         C  0.33437206  0.83715321  0.96441067    -0.53600
C58         C  0.33176599  0.81358369  0.94888074     0.10400
C59         C  0.38358126  0.85921528  0.96201723    -0.53100
C60         C  0.38085565  0.83576887  0.94546346     0.11000
H61         H  0.36227585  0.87530732  0.85217073     0.15500
H62         H  0.35383037  0.79985363  0.89627625     0.01200
H63         H  0.31919475  0.83798477  0.98836799     0.15800
H64         H  0.40146170  0.87411987  0.98394044     0.15600
C65         C  0.23990211  0.70664868  0.02669370     0.87400
C66         C  0.23873821  0.68288746  0.99801771    -0.52800
C67         C  0.21646014  0.65853904  0.00978812     0.10300
C68         C  0.19707300  0.65968358  0.05225535     0.21300
C69         C  0.21282460  0.70370902  0.01393006    -0.53600
C70         C  0.19020597  0.67927750  0.02602482     0.10400
C71         C  0.23771564  0.69872732  0.08896504    -0.53100
C72         C  0.21480339  0.67495843  0.10343173     0.11000
H73         H  0.25497044  0.68483220  0.97251609     0.15500
H74         H  0.17929759  0.63967313  0.06241031     0.01200
H75         H  0.21189604  0.72034835  0.99800165     0.15800
H76         H  0.25238411  0.71087710  0.12038248     0.15600
C77         C  0.22317567  0.53057207  0.91617282     0.87400
C78         C  0.22968040  0.55823091  0.93293884    -0.52800
C79         C  0.21122678  0.56424024  0.91755914     0.10300
C80         C  0.18752827  0.54153812  0.88263289     0.21300
C81         C  0.19426888  0.51163426  0.94004920    -0.53600
C82         C  0.17542839  0.51664240  0.92063299     0.10400
C83         C  0.21900759  0.52945690  0.85282155    -0.53100
C84         C  0.20019325  0.53453572  0.83407684     0.11000
H85         H  0.24737338  0.57179129  0.95733716     0.15500
H86         H  0.17232337  0.54595947  0.86931624     0.01200
H87         H  0.18837304  0.49647924  0.96964132     0.15800
H88         H  0.23018917  0.52452187  0.82474199     0.15600
C89         C  0.32088144  0.53505383  0.99735902     0.87400
C90         C  0.34569504  0.56239033  0.98189392    -0.52800
C91         C  0.36911562  0.56800052  0.00523133     0.10300
C92         C  0.36557889  0.54589873  0.04598555     0.21300
C93         C  0.32920375  0.51494985  0.98481543    -0.53600
C94         C  0.35229419  0.51981424  0.01111789     0.10400
C95         C  0.32035990  0.53635476  0.06164862    -0.53100
C96         C  0.34347163  0.54165729  0.08732247     0.11000
H97         H  0.34522584  0.57705663  0.95582166     0.15500
H98         H  0.38407570  0.55127999  0.06872163     0.01200
H99         H  0.31755914  0.49825168  0.95689943     0.15800
H100        H  0.30325019  0.53358093  0.08515402     0.15600
C101        C  0.50097759  0.71527947  0.92918804     0.87400
C102        C  0.47727829  0.69045249  0.95786864    -0.52800
C103        C  0.47037162  0.66610265  0.93650187     0.10300
C104        C  0.49054799  0.66936575  0.89054904     0.21300
C105        C  0.52447724  0.71123142  0.93480560    -0.53600
C106        C  0.51912963  0.68723179  0.91594557     0.10400
C107        C  0.49309900  0.71028417  0.86646624    -0.53100
C108        C  0.48841964  0.68669377  0.84571551     0.11000
H109        H  0.46679686  0.69245361  0.99275413     0.15500
H110        H  0.48683813  0.65069593  0.87271979     0.01200
H111        H  0.54335951  0.72560839  0.95482153     0.15800
H112        H  0.48991552  0.72315665  0.84029723     0.15600
C113        C  0.49711986  0.80359863  0.03521321     0.87400
C114        C  0.47299283  0.80229809  0.00583156    -0.52800
C115        C  0.46679373  0.82026158  0.02432125     0.10300
C116        C  0.48590250  0.83811219  0.07154170     0.21300
C117        C  0.52060314  0.83310029  0.03164730    -0.53600
C118        C  0.51507510  0.85197802  0.04797117     0.10400
C119        C  0.48860296  0.79975500  0.09692274    -0.53100
C120        C  0.48389028  0.81827909  0.11690409     0.11000
H121        H  0.46099806  0.78718201  0.97499615     0.15500
H122        H  0.48004832  0.85175171  0.08610386     0.01200
H123        H  0.54041668  0.83767524  0.02047443     0.15800
H124        H  0.48605191  0.78393624  0.12387922     0.15600
C125        C  0.31751761  0.79437955  0.53585409     0.87400
C126        C  0.32104261  0.79512550  0.60006777    -0.52800
C127        C  0.34432337  0.81684750  0.62062971     0.10300
C128        C  0.36274985  0.83544102  0.57300063     0.21300
C129        C  0.32122671  0.82194105  0.52417760    -0.53600
C130        C  0.34507647  0.84355416  0.54257861     0.10400
C131        C  0.34259939  0.79646893  0.51230043    -0.53100
C132        C  0.36618637  0.81752194  0.53097887     0.11000
H133        H  0.30542473  0.78074073  0.62767644     0.15500
H134        H  0.38180584  0.85293417  0.58738589     0.01200
H135        H  0.30609260  0.82423313  0.50395492     0.15800
H136        H  0.34177665  0.78218997  0.48276314     0.15600
C137        C  0.22272569  0.69698428  0.43110040     0.87400
C138        C  0.22381183  0.69508339  0.36697568    -0.52800
C139        C  0.20252298  0.67243684  0.34405136     0.10300
C140        C  0.18239473  0.65258629  0.38816210     0.21300
C141        C  0.19498057  0.69223492  0.44306756    -0.53600
C142        C  0.17362565  0.66897735  0.42231581     0.10400
C143        C  0.22079108  0.67124924  0.45019271    -0.53100
C144        C  0.20006634  0.64783601  0.42867052     0.11000
H145        H  0.24025778  0.70988000  0.34114560     0.15500
H146        H  0.16555131  0.63421186  0.36921542     0.01200
H147        H  0.19246319  0.70615967  0.46741889     0.15800
H148        H  0.23552279  0.67157476  0.47762964     0.15600
C149        C  0.21378922  0.52258857  0.50652862     0.87400
C150        C  0.21482054  0.52608659  0.57042112    -0.52800
C151        C  0.19459699  0.52827436  0.59238068     0.10300
C152        C  0.17578823  0.52851705  0.54781146     0.21300
C153        C  0.18503276  0.49923863  0.49457531    -0.53600
C154        C  0.16497256  0.50218411  0.51509864     0.10400
C155        C  0.21449740  0.54758400  0.48622903    -0.53100
C156        C  0.19493898  0.55109138  0.50692071     0.11000
H157        H  0.23037521  0.52744276  0.59702110     0.15500
H158        H  0.15983905  0.53092179  0.56567938     0.01200
H159        H  0.18099931  0.48177576  0.47145507     0.15800
H160        H  0.23004112  0.56210309  0.45840129     0.15600
C161        C  0.31144574  0.52882355  0.41036920     0.87400
C162        C  0.31590938  0.53141881  0.34672591    -0.52800
C163        C  0.34107058  0.53884788  0.32948308     0.10300
C164        C  0.35954919  0.54114277  0.37764616     0.21300
C165        C  0.31816852  0.50748711  0.42452007    -0.53600
C166        C  0.34332128  0.51381372  0.40799922     0.10400
C167        C  0.33490604  0.55497286  0.43466800    -0.53100
C168        C  0.36007033  0.56145489  0.41897216     0.11000
H169        H  0.30009609  0.52552145  0.31634772     0.15500
H170        H  0.37969692  0.54631106  0.36305520     0.01200
H171        H  0.30395838  0.48850983  0.44413077     0.15800
H172        H  0.33171993  0.56722782  0.46317458     0.15600
C173        C  0.48565492  0.70451796  0.52078266     0.87400
C174        C  0.48064744  0.70061358  0.58373001    -0.52800
C175        C  0.47592947  0.67703527  0.60467912     0.10300
C176        C  0.47617627  0.65868782  0.55903181     0.21300
C177        C  0.50881640  0.69982036  0.50997606    -0.53600
C178        C  0.50407773  0.67594539  0.53036121     0.10400
C179        C  0.46163895  0.67972950  0.49359448    -0.53100
C180        C  0.45592913  0.65580610  0.51369767     0.11000
H181        H  0.48199894  0.71611372  0.61020350     0.15500
H182        H  0.47202964  0.63932118  0.57538292     0.01200
H183        H  0.52657308  0.71297436  0.48524909     0.15800
H184        H  0.45013673  0.68094072  0.45958821     0.15600
C185        C  0.48971497  0.80254852  0.43980884     0.87400
C186        C  0.48590187  0.80269928  0.37673872    -0.52800
C187        C  0.48283337  0.82257557  0.35751301     0.10300
C188        C  0.48411269  0.84125715  0.40394605     0.21300
C189        C  0.51370064  0.83098324  0.45380771    -0.53600
C190        C  0.51109487  0.85120657  0.43424991     0.10400
C191        C  0.46577042  0.80274322  0.46522829    -0.53100
C192        C  0.46224115  0.82251129  0.44694262     0.11000
H193        H  0.48571170  0.78810316  0.34915833     0.15500
H194        H  0.48235315  0.85787948  0.38838540     0.01200
H195        H  0.53032677  0.83531414  0.48065401     0.15800
H196        H  0.45235783  0.78796047  0.49560572     0.15600
O197        O  0.41629124  0.01982557  0.37014434    -0.56900
C198        C  0.45502387  0.01450780  0.47399929     0.75700
O199        O  0.39543260  0.04512442  0.48527353    -0.58100
C200        C  0.39447381  0.01738961  0.35489674     0.75700
C201        C  0.37393769  0.95292032  0.49529667     0.78100
Cd202      Cd  0.40431711  0.00898603  0.46600996     1.37500
O203        O  0.44721156  0.01925417  0.42871321    -0.56900
O204        O  0.38285650  0.96178740  0.44696711    -0.55700
C205        C  0.41797704  0.06000018  0.50889754     0.78000
O206        O  0.37466494  0.96952561  0.52986306    -0.58100
O207        O  0.43939174  0.00787814  0.51561824    -0.56500
O208        O  0.37588808  0.00931318  0.39114105    -0.56500
O209        O  0.43075317  0.04912994  0.52188788    -0.55700
O210        O  0.59290950  0.00977047  0.59061711    -0.56900
C211        C  0.55408740  0.01615200  0.49160427     0.75700
O212        O  0.62941282  0.05521344  0.42395199    -0.58100
C213        C  0.61503544  0.01267566  0.60528997     0.75700
C214        C  0.58574166  0.96592746  0.45434145     0.78100
Cd215      Cd  0.60361256  0.01818925  0.49394867     1.37500
O216        O  0.56274290  0.01223330  0.53663557    -0.56900
O217        O  0.60777547  0.97848954  0.48072408    -0.55700
C218        C  0.63626632  0.07299685  0.46091594     0.78000
O219        O  0.57671444  0.97956650  0.43581702    -0.58100
O220        O  0.56868772  0.02127678  0.44883973    -0.56500
O221        O  0.63271922  0.01870670  0.56777313    -0.56500
O222        O  0.63331891  0.06530368  0.51099724    -0.55700
O223        O  0.42034152  0.03349847  0.10804161    -0.56900
C224        C  0.45950528  0.02669053  0.99322550     0.75700
O225        O  0.38447528  0.98513897  0.95207833    -0.58100
C226        C  0.39818935  0.03078365  0.12157026     0.75700
C227        C  0.42841098  0.07862497  0.96985162     0.78100
Cd228      Cd  0.41193174  0.02635565  0.01159572     1.37500
O229        O  0.45296067  0.02980556  0.04151523    -0.56900
O230        O  0.43942858  0.07408396  0.00966156    -0.55700
C231        C  0.38001830  0.96941539  0.99280700     0.78000
O232        O  0.40809755  0.05833334  0.94749009    -0.58100
O233        O  0.44435066  0.02424945  0.95317691    -0.56500
O234        O  0.38144384  0.02609955  0.08278608    -0.56500
O235        O  0.38572844  0.97998703  0.04051747    -0.55700
O236        O  0.58875327  0.00418283  0.85461633    -0.56900
C237        C  0.55324838  0.02083455  0.96050709     0.75700
O238        O  0.60644211  0.98382012  0.99686468    -0.58100
C239        C  0.61210830  0.01012456  0.84057211     0.75700
C240        C  0.63164597  0.07387392  0.96977269     0.78100
Cd241      Cd  0.59919254  0.01770463  0.95009429     1.37500
O242        O  0.55861923  0.01397948  0.91469817    -0.56900
O243        O  0.62358852  0.06379049  0.92209957    -0.55700
C244        C  0.58149568  0.96779569  0.00711758     0.78000
O245        O  0.62903758  0.05796598  0.00869751    -0.58100
O246        O  0.56906007  0.02569207  0.00093184    -0.56500
O247        O  0.62983586  0.01862663  0.87851995    -0.56500
O248        O  0.56630545  0.97614293  0.99596401    -0.55700
C249        C  0.51569919  0.22382445  0.49723694     0.87400
C250        C  0.53672687  0.21932712  0.47036999    -0.52800
C251        C  0.53988490  0.20075831  0.49606757     0.10300
C252        C  0.51973122  0.18598388  0.54443706     0.21300
C253        C  0.48973680  0.19538243  0.49377080    -0.53600
C254        C  0.49165937  0.17534349  0.51821498     0.10400
C255        C  0.52256387  0.22785503  0.55962186    -0.53100
C256        C  0.52372617  0.20790681  0.58555372     0.11000
H257        H  0.54876795  0.23033912  0.43418322     0.15500
H258        H  0.52188772  0.17015262  0.56316726     0.01200
H259        H  0.47178543  0.19095444  0.47195552     0.15800
H260        H  0.52461791  0.24463974  0.58244459     0.15600
C261        C  0.52509077  0.32462904  0.41420397     0.87400
C262        C  0.54842883  0.34791128  0.44733373    -0.52800
C263        C  0.55550616  0.37339970  0.43227355     0.10300
C264        C  0.53605072  0.37237610  0.38662353     0.21300
C265        C  0.50204091  0.32901303  0.42588195    -0.53600
C266        C  0.50731674  0.35348905  0.41082046     0.10400
C267        C  0.53242343  0.33215761  0.35230960    -0.53100
C268        C  0.53812294  0.35696153  0.33743798     0.11000
H269        H  0.55719813  0.34372347  0.48237058     0.15500
H270        H  0.54015844  0.39189102  0.37255131     0.01200
H271        H  0.48396970  0.31548692  0.44919755     0.15800
H272        H  0.53260702  0.31858543  0.32228451     0.15600
C273        C  0.77863334  0.32621956  0.51457349     0.87400
C274        C  0.77698151  0.34999712  0.49541933    -0.52800
C275        C  0.79736050  0.37412807  0.51368420     0.10300
C276        C  0.81726947  0.37246865  0.55352246     0.21300
C277        C  0.80736542  0.33401702  0.49852402    -0.53600
C278        C  0.82795470  0.35780823  0.51967891     0.10400
C279        C  0.77905495  0.32882390  0.57899760    -0.53100
C280        C  0.79968165  0.35255155  0.59956059     0.11000
H281        H  0.76150034  0.34813986  0.46756548     0.15500
H282        H  0.83291042  0.39171158  0.57161778     0.01200
H283        H  0.81071951  0.32170864  0.47070496     0.15800
H284        H  0.76417577  0.31412611  0.60734209     0.15600
C285        C  0.68584970  0.22798340  0.40882249     0.87400
C286        C  0.66085535  0.22598108  0.43458568    -0.52800
C287        C  0.63645441  0.20359285  0.42177072     0.10300
C288        C  0.63949970  0.18504219  0.38119501     0.21300
C289        C  0.68351844  0.20148732  0.42253027    -0.53600
C290        C  0.65949358  0.17922992  0.40923370     0.10400
C291        C  0.67991164  0.22490776  0.34563456    -0.53100
C292        C  0.65543427  0.20317230  0.33099545     0.11000
H293        H  0.66271958  0.24218014  0.45925123     0.15500
H294        H  0.62038074  0.16646145  0.37014331     0.01200
H295        H  0.69976885  0.20033368  0.44082445     0.15800
H296        H  0.69398132  0.23661529  0.31306817     0.15600
C297        C  0.79613855  0.50484095  0.40983105     0.87400
C298        C  0.78906748  0.47706655  0.42872013    -0.52800
C299        C  0.80744983  0.47036077  0.41614311     0.10300
C300        C  0.83060207  0.49197764  0.37873255     0.21300
C301        C  0.82556510  0.52445921  0.42895082    -0.53600
C302        C  0.84340931  0.51747563  0.41380139     0.10400
C303        C  0.79972298  0.50492573  0.34658697    -0.53100
C304        C  0.81681968  0.49744456  0.32965701     0.11000
H305        H  0.77024502  0.46365960  0.45013961     0.15500
H306        H  0.84590916  0.48778822  0.36565632     0.01200
H307        H  0.83293615  0.54358546  0.44816979     0.15800
H308        H  0.79007806  0.51111229  0.31702357     0.15600
C309        C  0.70192983  0.50486497  0.50049755     0.87400
C310        C  0.67611503  0.47831572  0.48509600    -0.52800
C311        C  0.65302192  0.47335697  0.51020117     0.10300
C312        C  0.65794273  0.49609930  0.55007766     0.21300
C313        C  0.69554963  0.52628253  0.48896183    -0.53600
C314        C  0.67249803  0.52188973  0.51383244     0.10400
C315        C  0.70224029  0.50292171  0.56466092    -0.53100
C316        C  0.67982436  0.49915297  0.59080525     0.11000
H317        H  0.67599026  0.46368127  0.45806939     0.15500
H318        H  0.63944797  0.49234396  0.57130619     0.01200
H319        H  0.70817819  0.54346475  0.46237386     0.15800
H320        H  0.71874556  0.50437944  0.58815060     0.15600
C321        C  0.79039274  0.32794641  0.92739948     0.87400
C322        C  0.81809183  0.33144002  0.93151050    -0.52800
C323        C  0.83908162  0.35492266  0.90981710     0.10300
C324        C  0.82990859  0.37274522  0.88353467     0.21300
C325        C  0.79409331  0.35348661  0.95285777    -0.53600
C326        C  0.81438065  0.37699400  0.93031213     0.10400
C327        C  0.78697697  0.33167328  0.86494384    -0.53100
C328        C  0.80792504  0.35430797  0.84138314     0.11000
H329        H  0.82072658  0.31624555  0.94997924     0.15500
H330        H  0.84633509  0.39163552  0.86469986     0.01200
H331        H  0.78059690  0.35314092  0.98417117     0.15800
H332        H  0.76968744  0.31765550  0.84024827     0.15600
C333        C  0.69093458  0.23148932  0.01958134     0.87400
C334        C  0.68350111  0.22732580  0.08214329    -0.52800
C335        C  0.65809931  0.20616797  0.09402488     0.10300
C336        C  0.64263249  0.18990376  0.04188198     0.21300
C337        C  0.68692343  0.20442259  0.00446568    -0.53600
C338        C  0.66187254  0.18286139  0.01484982     0.10400
C339        C  0.66768564  0.23204658  0.99178092    -0.53100
C340        C  0.64229254  0.21041661  0.00187791     0.11000
H341        H  0.69723587  0.23808015  0.11583547     0.15500
H342        H  0.62261706  0.17189132  0.05105629     0.01200
H343        H  0.70290476  0.20231685  0.98803999     0.15800
H344        H  0.67140380  0.24914986  0.96735842     0.15600
C345        C  0.52819610  0.23904595  0.91312765     0.87400
C346        C  0.53043900  0.23779189  0.84910081    -0.52800
C347        C  0.52868660  0.21519852  0.82961717     0.10300
C348        C  0.52675756  0.19640724  0.87725211     0.21300
C349        C  0.50236929  0.21233974  0.92867639    -0.53600
C350        C  0.50133805  0.18983549  0.91098190     0.10400
C351        C  0.55177430  0.23669145  0.93293329    -0.53100
C352        C  0.55094746  0.21444516  0.91588904     0.11000
H353        H  0.53382500  0.25343034  0.82044194     0.15500
H354        H  0.52632022  0.17843140  0.86296716     0.01200
H355        H  0.48591037  0.21167910  0.95069763     0.15800
H356        H  0.56842810  0.25183259  0.95765634     0.15600
C357        C  0.53689592  0.33668176  0.01409270     0.87400
C358        C  0.53825341  0.33945810  0.07825461    -0.52800
C359        C  0.54317105  0.36325760  0.09782666     0.10300
C360        C  0.54484724  0.38212942  0.05127105     0.21300
C361        C  0.51407434  0.34144791  0.00023081    -0.53600
C362        C  0.51814809  0.36522405  0.01871834     0.10400
C363        C  0.56268805  0.36172235  0.99229618    -0.53100
C364        C  0.56697382  0.38541425  0.01093161     0.11000
H365        H  0.53351978  0.32345436  0.10716825     0.15500
H366        H  0.54843944  0.40128831  0.06730608     0.01200
H367        H  0.49588897  0.32703568  0.97825716     0.15800
H368        H  0.57632613  0.36076052  0.96322245     0.15600
C369        C  0.80747852  0.50688211  0.99923749     0.87400
C370        C  0.80335938  0.50186675  0.06284721    -0.52800
C371        C  0.82146276  0.49754920  0.08814713     0.10300
C372        C  0.84159137  0.49752274  0.04738335     0.21300
C373        C  0.83701688  0.52924543  0.99186657    -0.53600
C374        C  0.85572581  0.52610697  0.01983409     0.10400
C375        C  0.80645756  0.48216071  0.97771595    -0.53100
C376        C  0.82367900  0.47653623  0.00225335     0.11000
H377        H  0.78794518  0.50248172  0.08648756     0.15500
H378        H  0.85427091  0.49157823  0.06779845     0.01200
H379        H  0.84157662  0.54541681  0.96419942     0.15800
H380        H  0.79219302  0.46887030  0.94711448     0.15600
C381        C  0.71381532  0.51059918  0.91670123     0.87400
C382        C  0.71082625  0.50816856  0.85307335    -0.52800
C383        C  0.68690987  0.50296772  0.83309153     0.10300
C384        C  0.66779851  0.50199105  0.87916972     0.21300
C385        C  0.70901680  0.53345142  0.92824204    -0.53600
C386        C  0.68475240  0.52880954  0.90986663     0.10400
C387        C  0.68862306  0.48523236  0.93981670    -0.53100
C388        C  0.66434433  0.48072009  0.92212023     0.11000
H389        H  0.72687288  0.51128107  0.82523715     0.15500
H390        H  0.64870619  0.49894800  0.86353627     0.01200
H391        H  0.72372837  0.55263232  0.94546099     0.15800
H392        H  0.69015400  0.47188552  0.96847319     0.15600
O393        O  0.40734194  0.41372606  0.58825061    -0.56900
C394        C  0.46100042  0.46420861  0.48960771     0.75700
O395        O  0.42274358  0.39448288  0.41967947    -0.58100
C396        C  0.38369145  0.39339292  0.59199686     0.75700
C397        C  0.38310983  0.44353812  0.45199346     0.78100
Cd398      Cd  0.40945587  0.41700031  0.49017790     1.37500
O399        O  0.44880256  0.45393599  0.53516836    -0.56900
O400        O  0.39804465  0.44989897  0.49434235    -0.55700
C401        C  0.43160472  0.38599289  0.45743017     0.78000
O402        O  0.37801900  0.42243432  0.42663932    -0.58100
O403        O  0.44928328  0.45208662  0.44520438    -0.56500
O404        O  0.37063299  0.38333138  0.54709899    -0.56500
O405        O  0.42572871  0.38802465  0.50699968    -0.55700
O406        O  0.60267051  0.62000989  0.34192316    -0.56900
C407        C  0.55759900  0.56744704  0.45946940     0.75700
O408        O  0.64075658  0.61469076  0.49167786    -0.58100
C409        C  0.62555628  0.64111699  0.33481235     0.75700
C410        C  0.58006754  0.64394619  0.48097705     0.78100
Cd411      Cd  0.60501008  0.61718543  0.44010529     1.37500
O412        O  0.56487088  0.57650433  0.41025533    -0.56900
O413        O  0.57824866  0.63585986  0.43157863    -0.55700
C414        C  0.63537593  0.59366895  0.46544679     0.78000
O415        O  0.59722386  0.64330264  0.51238351    -0.58100
O416        O  0.57197422  0.58207683  0.49934908    -0.56500
O417        O  0.64004159  0.65198539  0.37774635    -0.56500
O418        O  0.61771055  0.58560998  0.42777845    -0.55700
O419        O  0.40971746  0.41834682  0.82040653    -0.56900
C420        C  0.46536624  0.46945768  0.93212768     0.75700
O421        O  0.38390140  0.42615862  0.98450862    -0.58100
C422        C  0.38722958  0.39639594  0.81910103     0.75700
C423        C  0.44011919  0.39326399  0.95483084     0.78100
Cd424      Cd  0.41486566  0.42127506  0.91971290     1.37500
O425        O  0.45619816  0.46018976  0.88394703    -0.56900
O426        O  0.44281234  0.40342319  0.90695925    -0.55700
C427        C  0.38896463  0.44767134  0.96066572     0.78000
O428        O  0.42203460  0.39225468  0.98615068    -0.58100
O429        O  0.45102835  0.45607289  0.97357418    -0.56500
O430        O  0.37645509  0.38534228  0.86544005    -0.56500
O431        O  0.40371164  0.45488540  0.91762589    -0.55700
O432        O  0.60909427  0.61877542  0.09302042    -0.56900
C433        C  0.56420741  0.57078901  0.97237752     0.75700
O434        O  0.60444002  0.64551285  0.92250750    -0.58100
C435        C  0.63146705  0.64002211  0.10316369     0.75700
C436        C  0.64564602  0.59843828  0.96227704     0.78100
Cd437      Cd  0.61353541  0.61940513  0.99384968     1.37500
O438        O  0.57206701  0.57865778  0.02178167    -0.56900
O439        O  0.62846640  0.58919892  0.00124678    -0.55700
C440        C  0.59198267  0.65065197  0.95867432     0.78000
O441        O  0.64977536  0.61944662  0.93765073    -0.58100
O442        O  0.57896609  0.58597981  0.93325410    -0.56500
O443        O  0.64732670  0.65179259  0.06215818    -0.56500
O444        O  0.59406638  0.64532009  0.00865106    -0.55700
C445        C  0.49140560  0.49498201  0.94024617    -0.04400
C446        C  0.50832749  0.49779931  0.98522121    -0.01600
C447        C  0.53252515  0.52234716  0.99435086     0.03400
C448        C  0.53926233  0.54475998  0.96085971    -0.04400
C449        C  0.52238678  0.54199932  0.91589898    -0.01500
C450        C  0.49887312  0.51704884  0.90485677     0.03400
C451        C  0.50130217  0.47537790  0.02183418     0.38100
C452        C  0.52849043  0.56499746  0.88216912     0.38100
C453        C  0.48179258  0.51454852  0.85847377     0.36500
C454        C  0.55107685  0.52409330  0.03669464     0.36500
N455        N  0.46821838  0.51249116  0.82137583    -0.38300
N456        N  0.56599483  0.52545474  0.07003074    -0.38300
N457        N  0.53320113  0.58327517  0.85528404    -0.37800
N458        N  0.49579878  0.45765160  0.05134881    -0.37800
C459        C  0.63423890  0.65150996  0.27769132    -0.04400
C460        C  0.61704673  0.65577578  0.24463178    -0.01600
C461        C  0.61877639  0.65562786  0.18619455     0.03400
C462        C  0.63720851  0.65051783  0.16070748    -0.04400
C463        C  0.65685411  0.65002084  0.19358875    -0.01500
C464        C  0.65545608  0.65069885  0.25240152     0.03400
C465        C  0.59609295  0.65809245  0.27076784     0.38100
C466        C  0.67703522  0.64662312  0.16750737     0.38100
C467        C  0.67395159  0.64767665  0.28683072     0.36500
C468        C  0.60040765  0.65907987  0.15221572     0.36500
N469        N  0.68858138  0.64522815  0.31465748    -0.38300
N470        N  0.58576453  0.66192572  0.12537221    -0.38300
N471        N  0.69340651  0.64408406  0.14733530    -0.37800
N472        N  0.57923608  0.65968168  0.29156440    -0.37800
C473        C  0.37522559  0.38460768  0.76467047    -0.04400
C474        C  0.38508184  0.37094800  0.73551300    -0.01600
C475        C  0.38387395  0.36989837  0.67686646     0.03400
C476        C  0.37291973  0.38260560  0.64774539    -0.04400
C477        C  0.35950606  0.39267938  0.67717434    -0.01500
C478        C  0.36055144  0.39356289  0.73595015     0.03400
C479        C  0.39896090  0.36049010  0.76544543     0.38100
C480        C  0.34757728  0.40502124  0.64677722     0.38100
C481        C  0.34879484  0.40594172  0.76651852     0.36500
C482        C  0.39664777  0.35852089  0.64613310     0.36500
N483        N  0.33932271  0.41575945  0.79084933    -0.38300
N484        N  0.40692078  0.34960486  0.62142211    -0.38300
N485        N  0.33826007  0.41497881  0.62222463    -0.37800
N486        N  0.41009544  0.35220068  0.78926242    -0.37800
C487        C  0.53371867  0.54067692  0.46995842    -0.04400
C488        C  0.51568218  0.53653524  0.51359233    -0.01600
C489        C  0.49261570  0.51101371  0.52260793     0.03400
C490        C  0.48730208  0.48967164  0.48732809    -0.04400
C491        C  0.50631244  0.49347398  0.44624165    -0.01500
C492        C  0.52938706  0.51894535  0.43736318     0.03400
C493        C  0.52010253  0.55869794  0.54780587     0.38100
C494        C  0.50262656  0.47100325  0.41419681     0.38100
C495        C  0.54906322  0.52252478  0.39576234     0.36500
C496        C  0.47395991  0.50720797  0.56684966     0.36500
N497        N  0.56475689  0.52535064  0.36270160    -0.38300
N498        N  0.45920773  0.50432205  0.60223737    -0.38300
N499        N  0.49974511  0.45308049  0.38886837    -0.37800
N500        N  0.52351005  0.57630857  0.57507207    -0.37800
C501        C  0.67557066  0.54774010  0.92160389    -0.04400
C502        C  0.66496080  0.55638825  0.87926036    -0.01600
C503        C  0.65705890  0.57460744  0.89164136     0.03400
C504        C  0.65901938  0.58397786  0.94654172    -0.04400
C505        C  0.66900325  0.57498722  0.98891966    -0.01500
C506        C  0.67686714  0.55686047  0.97680311     0.03400
C507        C  0.66038702  0.54567513  0.82341175     0.38100
C508        C  0.67033768  0.58366665  0.04607111     0.38100
C509        C  0.68385615  0.54584448  0.02290750     0.36500
C510        C  0.64491188  0.58209446  0.84858178     0.36500
N511        N  0.68896907  0.53734552  0.06098872    -0.38300
N512        N  0.63506448  0.58789218  0.81431192    -0.38300
N513        N  0.67118311  0.59020337  0.09183252    -0.37800
N514        N  0.65541614  0.53718238  0.77863665    -0.37800
C515        C  0.78727753  0.51292649  0.97187122    -0.04400
C516        C  0.78035740  0.52987172  0.99790682    -0.01600
C517        C  0.75708184  0.52982210  0.98121792     0.03400
C518        C  0.74018723  0.51278437  0.93723986    -0.04400
C519        C  0.74807562  0.49630922  0.91172513    -0.01500
C520        C  0.77332441  0.50014050  0.92256429     0.03400
C521        C  0.79765753  0.54812412  0.04114058     0.38100
C522        C  0.72986565  0.47375748  0.87689155     0.38100
C523        C  0.78670774  0.49532214  0.87760872     0.36500
C524        C  0.75014008  0.54562508  0.01431048     0.36500
N525        N  0.79751907  0.49180043  0.84149547    -0.38300
N526        N  0.74599824  0.55890783  0.04228597    -0.38300
N527        N  0.71535802  0.45553666  0.84968807    -0.37800
N528        N  0.81128117  0.56274998  0.07561456    -0.37800
C529        C  0.45949130  0.38573602  0.97366617    -0.04400
C530        C  0.48734969  0.40368919  0.96307612    -0.01600
C531        C  0.50651512  0.39811587  0.98224341     0.03400
C532        C  0.49819038  0.37327699  0.00752877    -0.04400
C533        C  0.47034601  0.35548884  0.01929066    -0.01500
C534        C  0.45116333  0.36178124  0.00284233     0.03400
C535        C  0.49678485  0.42830131  0.93207239     0.38100
C536        C  0.46159818  0.33146046  0.05168655     0.38100
C537        C  0.42278658  0.34300099  0.01373415     0.36500
C538        C  0.53473631  0.41893320  0.97733562     0.36500
N539        N  0.40014056  0.32784560  0.02229560    -0.38300
N540        N  0.55673358  0.43690199  0.97400651    -0.38300
N541        N  0.45482749  0.31249554  0.07811629    -0.37800
N542        N  0.50469167  0.44776336  0.90665187    -0.37800
C543        C  0.63769868  0.45810466  0.94584290    -0.04400
C544        C  0.63465711  0.45228165  0.00420284    -0.01600
C545        C  0.61066183  0.42993588  0.02596150     0.03400
C546        C  0.59027734  0.41160810  0.98981496    -0.04400
C547        C  0.59229505  0.41817249  0.93254544    -0.01500
C548        C  0.61507944  0.44185765  0.91127016     0.03400
C549        C  0.65580118  0.46936074  0.04314731     0.38100
C550        C  0.56963259  0.40185901  0.89605467     0.38100
C551        C  0.61384617  0.44958431  0.85454288     0.36500
C552        C  0.60676021  0.42656517  0.08584459     0.36500
N553        N  0.61131741  0.45532232  0.80977869    -0.38300
N554        N  0.60397490  0.42508577  0.13379342    -0.38300
N555        N  0.55157128  0.38969978  0.86643066    -0.37800
N556        N  0.67248401  0.48216827  0.07525111    -0.37800
C557        C  0.52844499  0.26338638  0.93926071    -0.04400
C558        C  0.53567261  0.27013697  0.99619308    -0.01600
C559        C  0.54110722  0.29464836  0.01824862     0.03400
C560        C  0.53367613  0.31071087  0.98886431    -0.04400
C561        C  0.52482805  0.30307678  0.93280804    -0.01500
C562        C  0.52100953  0.27927756  0.90954138     0.03400
C563        C  0.53692381  0.25160746  0.03405514     0.38100
C564        C  0.52038352  0.32002696  0.89665249     0.38100
C565        C  0.50656766  0.27035678  0.85724420     0.36500
C566        C  0.55774736  0.30412357  0.06777398     0.36500
N567        N  0.49495504  0.26431587  0.81546918    -0.38300
N568        N  0.57115310  0.31078396  0.10716969    -0.38300
N569        N  0.51624808  0.33275526  0.86667700    -0.37800
N570        N  0.53814056  0.23716471  0.06471758    -0.37800
C571        C  0.61731570  0.20833943  0.97729592    -0.04400
C572        C  0.61800577  0.21838452  0.92273005    -0.01600
C573        C  0.59693850  0.22132880  0.90388341     0.03400
C574        C  0.57252840  0.20969554  0.93377806    -0.04400
C575        C  0.57055340  0.19736164  0.98559313    -0.01500
C576        C  0.59309391  0.19789380  0.00857145     0.03400
C577        C  0.63966285  0.22476435  0.88410174     0.38100
C578        C  0.54564727  0.18528699  0.01709418     0.38100
C579        C  0.59128049  0.18905832  0.06576487     0.36500
C580        C  0.60126940  0.23806958  0.85565211     0.36500
N581        N  0.58910478  0.18184076  0.11152677    -0.38300
N582        N  0.60496418  0.25176765  0.81768936    -0.38300
N583        N  0.52598413  0.17540184  0.04302740    -0.37800
N584        N  0.65654628  0.22975616  0.85224600    -0.37800
C585        C  0.81783410  0.40326520  0.94647748    -0.04400
C586        C  0.84323026  0.42601855  0.96023368    -0.01600
C587        C  0.84542873  0.44999526  0.97804355     0.03400
C588        C  0.82205990  0.45073062  0.98809353    -0.04400
C589        C  0.79654839  0.42699773  0.97803262    -0.01500
C590        C  0.79479424  0.40487465  0.95203298     0.03400
C591        C  0.86717747  0.42486480  0.95663977     0.38100
C592        C  0.77163619  0.42450496  0.99570688     0.38100
C593        C  0.76927150  0.38443992  0.92785621     0.36500
C594        C  0.87185519  0.47403595  0.98364580     0.36500
N595        N  0.74909638  0.36829851  0.90792118    -0.38300
N596        N  0.89311302  0.49314067  0.98739722    -0.38300
N597        N  0.75165353  0.42229243  0.00944110    -0.37800
N598        N  0.88640080  0.42409154  0.95403797    -0.37800
C599        C  0.71862977  0.25581348  0.99934975    -0.04400
C600        C  0.72754758  0.25596046  0.94372864    -0.01600
C601        C  0.75223841  0.27761487  0.92312422     0.03400
C602        C  0.76747606  0.30138430  0.95439524    -0.04400
C603        C  0.76050654  0.30002049  0.01155329    -0.01500
C604        C  0.73535448  0.27898961  0.03214901     0.03400
C605        C  0.71114977  0.23420472  0.90537881     0.38100
C606        C  0.77970334  0.31942614  0.05097542     0.38100
C607        C  0.72617404  0.28393635  0.08406331     0.36500
C608        C  0.76250036  0.27384191  0.87127021     0.36500
N609        N  0.71954836  0.28888950  0.12533806    -0.38300
N610        N  0.76950121  0.26957606  0.82972506    -0.38300
N611        N  0.79469493  0.33472543  0.08300469    -0.37800
N612        N  0.69864124  0.21684248  0.87462305    -0.37800
C613        C  0.66244491  0.54009099  0.50249912    -0.04400
C614        C  0.65999711  0.54640995  0.44661342    -0.01600
C615        C  0.65279600  0.56510534  0.43472646     0.03400
C616        C  0.64761790  0.57775875  0.47847968    -0.04400
C617        C  0.64964926  0.57125331  0.53425953    -0.01500
C618        C  0.65612933  0.55191221  0.54616196     0.03400
C619        C  0.66268711  0.53204142  0.40081459     0.38100
C620        C  0.64366820  0.58342645  0.57967251     0.38100
C621        C  0.65436857  0.54321109  0.60331452     0.36500
C622        C  0.65047652  0.57105458  0.37687715     0.36500
N623        N  0.65170445  0.53631632  0.64937081    -0.38300
N624        N  0.64842288  0.57559331  0.33078005    -0.38300
N625        N  0.63897802  0.59323781  0.61578899    -0.37800
N626        N  0.66452805  0.52052017  0.36406643    -0.37800
C627        C  0.67874342  0.50013552  0.65306449    -0.04400
C628        C  0.66464386  0.47642416  0.68501976    -0.01600
C629        C  0.66780766  0.47720746  0.74363933     0.03400
C630        C  0.68261348  0.50191363  0.77148363    -0.04400
C631        C  0.69703461  0.52562651  0.73950572    -0.01500
C632        C  0.69523794  0.52473302  0.68074559     0.03400
C633        C  0.64736976  0.45101815  0.65792874     0.38100
C634        C  0.71463978  0.55095387  0.76712377     0.38100
C635        C  0.71005158  0.54936805  0.64885591     0.36500
C636        C  0.65847077  0.45258690  0.77421996     0.36500
N637        N  0.72148092  0.56918751  0.62390088    -0.38300
N638        N  0.65130256  0.43286712  0.79810858    -0.38300
N639        N  0.72866573  0.57105188  0.78941475    -0.37800
N640        N  0.63300140  0.43039479  0.63797696    -0.37800
C641        C  0.82198911  0.49708312  0.26874919    -0.04400
C642        C  0.80862899  0.47279460  0.23898093    -0.01600
C643        C  0.81001744  0.47287505  0.18000570     0.03400
C644        C  0.82360703  0.49721510  0.15020110    -0.04400
C645        C  0.83693555  0.52151549  0.17991410    -0.01500
C646        C  0.83589725  0.52145216  0.23874645     0.03400
C647        C  0.79105088  0.44789337  0.26835232     0.38100
C648        C  0.85110344  0.54677639  0.15012492     0.38100
C649        C  0.84797081  0.54660103  0.26846960     0.36500
C650        C  0.79642206  0.44788771  0.14983308     0.36500
N651        N  0.85754239  0.56655365  0.29242905    -0.38300
N652        N  0.78559913  0.42784610  0.12606836    -0.38300
N653        N  0.86256343  0.56717620  0.12728455    -0.37800
N654        N  0.77668747  0.42796208  0.29135317    -0.37800
C655        C  0.77350169  0.50941645  0.42898991    -0.04400
C656        C  0.77544349  0.52425637  0.47766758    -0.01600
C657        C  0.75350267  0.52610869  0.49526395     0.03400
C658        C  0.72788108  0.51034422  0.47034732    -0.04400
C659        C  0.72689682  0.49876862  0.41815467    -0.01500
C660        C  0.74818181  0.49597476  0.40075134     0.03400
C661        C  0.79819485  0.53535128  0.51521485     0.38100
C662        C  0.70507680  0.49155607  0.37939162     0.38100
C663        C  0.74245322  0.47711071  0.35617767     0.36500
C664        C  0.75806491  0.54554000  0.53758345     0.36500
N665        N  0.73762377  0.46196158  0.32079148    -0.38300
N666        N  0.76244514  0.56134267  0.57109992    -0.38300
N667        N  0.68783496  0.48563263  0.34798225    -0.37800
N668        N  0.81574224  0.54464564  0.54689693    -0.37800
C669        C  0.64661520  0.19929432  0.27119326    -0.04400
C670        C  0.64080991  0.17643979  0.24085605    -0.01600
C671        C  0.64147794  0.17719333  0.18167167     0.03400
C672        C  0.64798870  0.20081754  0.15303426    -0.04400
C673        C  0.64873187  0.22157219  0.18336093    -0.01500
C674        C  0.64794327  0.22077663  0.24211244     0.03400
C675        C  0.63477055  0.15240932  0.26997458     0.38100
C676        C  0.65091126  0.24407568  0.15385843     0.38100
C677        C  0.64914313  0.24242209  0.27286877     0.36500
C678        C  0.63605626  0.15387763  0.15094479     0.36500
N679        N  0.65006871  0.25963244  0.29751210    -0.38300
N680        N  0.63101425  0.13469362  0.12766093    -0.38300
N681        N  0.65258304  0.26192466  0.13006816    -0.37800
N682        N  0.62930786  0.13279284  0.29233011    -0.37800
C683        C  0.81037626  0.35723959  0.77934514    -0.04400
C684        C  0.80989290  0.37784607  0.75110788    -0.01600
C685        C  0.80843931  0.37775997  0.69194045     0.03400
C686        C  0.80618208  0.35629313  0.66099285    -0.04400
C687        C  0.80992895  0.33757310  0.68953123    -0.01500
C688        C  0.81234527  0.33827584  0.74802542     0.03400
C689        C  0.81092003  0.39909452  0.78296539     0.38100
C690        C  0.81268890  0.31816068  0.65895945     0.38100
C691        C  0.81903846  0.32076482  0.77581281     0.36500
C692        C  0.81037023  0.40034233  0.66390750     0.36500
N693        N  0.82520324  0.30737679  0.79757232    -0.38300
N694        N  0.81308166  0.41936369  0.64360611    -0.38300
N695        N  0.81511817  0.30240241  0.63632139    -0.37800
N696        N  0.81196646  0.41617705  0.80836203    -0.37800
C697        C  0.80091305  0.39912061  0.49000042    -0.04400
C698        C  0.78851370  0.41108117  0.51539414    -0.01600
C699        C  0.79318507  0.43555690  0.49493044     0.03400
C700        C  0.80572782  0.44580538  0.44159908    -0.04400
C701        C  0.81606514  0.43192364  0.41365608    -0.01500
C702        C  0.81434370  0.40936776  0.43862439     0.03400
C703        C  0.76945691  0.39730475  0.56064051     0.38100
C704        C  0.82836722  0.43989823  0.35889969     0.38100
C705        C  0.82633117  0.39648226  0.41069580     0.36500
C706        C  0.78634367  0.45042034  0.53181282     0.36500
N707        N  0.83654719  0.38687339  0.38843300    -0.38300
N708        N  0.78063709  0.46188830  0.56181333    -0.38300
N709        N  0.83867469  0.44559840  0.31548938    -0.37800
N710        N  0.75393122  0.38611909  0.59606609    -0.37800
C711        C  0.75678727  0.29941863  0.48656664    -0.04400
C712        C  0.74110475  0.27485787  0.51582615    -0.01600
C713        C  0.71835727  0.25263846  0.49064759     0.03400
C714        C  0.71197246  0.25289858  0.43309743    -0.04400
C715        C  0.72937736  0.27686728  0.40257180    -0.01500
C716        C  0.75220034  0.29884234  0.42816005     0.03400
C717        C  0.74951425  0.27048577  0.56950172     0.38100
C718        C  0.72363507  0.28117381  0.34613500     0.38100
C719        C  0.77131030  0.32084919  0.39259908     0.36500
C720        C  0.70144710  0.22940606  0.52580280     0.36500
N721        N  0.78597464  0.33783858  0.36265080    -0.38300
N722        N  0.68849103  0.21088018  0.55397414    -0.38300
N723        N  0.72023791  0.28599638  0.30116957    -0.37800
N724        N  0.75534851  0.26590497  0.61227247    -0.37800
C725        C  0.48740955  0.36110918  0.42293133    -0.04400
C726        C  0.48941079  0.37457989  0.47264772    -0.01600
C727        C  0.47154284  0.38306238  0.48312071     0.03400
C728        C  0.44986908  0.37614465  0.44604113    -0.04400
C729        C  0.44632097  0.36022596  0.39910047    -0.01500
C730        C  0.46483345  0.35244691  0.38807320     0.03400
C731        C  0.50897353  0.37844191  0.51465561     0.38100
C732        C  0.42310921  0.35094100  0.36338267     0.38100
C733        C  0.46021096  0.33474577  0.34191103     0.36500
C734        C  0.47635043  0.39977391  0.53140079     0.36500
N735        N  0.45660673  0.32053700  0.30531551    -0.38300
N736        N  0.48029840  0.41314096  0.56983712    -0.38300
N737        N  0.40449171  0.34336522  0.33500712    -0.37800
N738        N  0.52436667  0.38131492  0.54842091    -0.37800
C739        C  0.54445428  0.36672216  0.27781342    -0.04400
C740        C  0.56482433  0.36592759  0.24837806    -0.01600
C741        C  0.56569001  0.36702531  0.18952366     0.03400
C742        C  0.54616729  0.36893063  0.15924404    -0.04400
C743        C  0.52882699  0.37435041  0.18874733    -0.01500
C744        C  0.52868330  0.37419845  0.24792865     0.03400
C745        C  0.58638815  0.36642627  0.27856779     0.38100
C746        C  0.51054325  0.37937880  0.15895690     0.38100
C747        C  0.51356067  0.38335234  0.27705103     0.36500
C748        C  0.58745926  0.36741346  0.16001199     0.36500
N749        N  0.50229090  0.39203713  0.29861169    -0.38300
N750        N  0.60520209  0.36846182  0.13649893    -0.38300
N751        N  0.49581693  0.38369066  0.13662701    -0.37800
N752        N  0.60454938  0.36795984  0.30108625    -0.37800
C753        C  0.57966017  0.39900470  0.45752276    -0.04400
C754        C  0.60302197  0.39960840  0.47701516    -0.01600
C755        C  0.62543527  0.42312406  0.49927847     0.03400
C756        C  0.62657246  0.44752416  0.49907148    -0.04400
C757        C  0.60359886  0.44732049  0.48154395    -0.01500
C758        C  0.58030614  0.42345429  0.46196327     0.03400
C759        C  0.60571681  0.37678770  0.47319271     0.38100
C760        C  0.60397127  0.47198286  0.48176029     0.38100
C761        C  0.55745617  0.42520418  0.44692568     0.36500
C762        C  0.64770742  0.42202321  0.52262738     0.36500
N763        N  0.54010457  0.42809617  0.43493902    -0.38300
N764        N  0.66536187  0.42104905  0.54103374    -0.38300
N765        N  0.60355517  0.49126357  0.48176223    -0.37800
N766        N  0.60933734  0.35944989  0.47308880    -0.37800
C767        C  0.52331262  0.20602067  0.64868861    -0.04400
C768        C  0.50438818  0.20898726  0.67923424    -0.01600
C769        C  0.50530142  0.21021818  0.73807509     0.03400
C770        C  0.52546211  0.20912279  0.76790379    -0.04400
C771        C  0.54124453  0.20163478  0.73840797    -0.01500
C772        C  0.53997889  0.19979616  0.67919239     0.03400
C773        C  0.48206222  0.20792970  0.65061601     0.38100
C774        C  0.55738595  0.19390428  0.76845350     0.38100
C775        C  0.55395178  0.18906219  0.65115445     0.36500
C776        C  0.48322369  0.20890663  0.76837383     0.36500
N777        N  0.56467542  0.17957684  0.63055163    -0.38300
N778        N  0.46509632  0.20684350  0.79231619    -0.38300
N779        N  0.56984942  0.18675342  0.79093844    -0.37800
N780        N  0.46406791  0.20675013  0.62802882    -0.37800
C781        C  0.61004045  0.19942283  0.44321395    -0.04400
C782        C  0.58647659  0.18799822  0.40948548    -0.01600
C783        C  0.56266853  0.18583919  0.42968195     0.03400
C784        C  0.56285840  0.19789838  0.48040068    -0.04400
C785        C  0.58669796  0.21094565  0.51190664    -0.01500
C786        C  0.60876493  0.20899955  0.49686455     0.03400
C787        C  0.58658064  0.18001985  0.35251377     0.38100
C788        C  0.58983619  0.22888149  0.55649450     0.38100
C789        C  0.62939666  0.21612072  0.53850277     0.36500
C790        C  0.53824219  0.17239706  0.39668376     0.36500
N791        N  0.64524567  0.22169516  0.57309923    -0.38300
N792        N  0.51880645  0.16155466  0.37022903    -0.38300
N793        N  0.59278265  0.24367739  0.59131842    -0.37800
N794        N  0.58587609  0.17350824  0.30675681    -0.37800
C795        C  0.52055261  0.29670538  0.42903619    -0.04400
C796        C  0.49502764  0.27309228  0.44026453    -0.01600
C797        C  0.49304595  0.25008694  0.46452448     0.03400
C798        C  0.51635143  0.24875557  0.47259695    -0.04400
C799        C  0.54163126  0.27248641  0.46016269    -0.01500
C800        C  0.54312227  0.29425988  0.43260816     0.03400
C801        C  0.47048424  0.27041611  0.41994196     0.38100
C802        C  0.56687708  0.27608642  0.47885485     0.38100
C803        C  0.56767632  0.31260855  0.40272768     0.36500
C804        C  0.46707119  0.22955148  0.48656430     0.36500
N805        N  0.58727841  0.32591559  0.37759557    -0.38300
N806        N  0.44609987  0.21363821  0.50424535    -0.38300
N807        N  0.58720114  0.27935814  0.49336397    -0.37800
N808        N  0.45072359  0.26781973  0.40338559    -0.37800
C809        C  0.64093220  0.10237197  0.97939959    -0.04400
C810        C  0.66253187  0.11868109  0.01552138    -0.01600
C811        C  0.66939224  0.14494438  0.02730462     0.03400
C812        C  0.65474344  0.15515984  0.00280843    -0.04400
C813        C  0.63375448  0.13918596  0.96536940    -0.01500
C814        C  0.62671930  0.11293781  0.95398650     0.03400
C815        C  0.67809156  0.10869239  0.03965668     0.38100
C816        C  0.61963054  0.14983342  0.93710055     0.38100
C817        C  0.60375739  0.09649558  0.91804457     0.36500
C818        C  0.69086352  0.16105555  0.06649704     0.36500
N819        N  0.58531099  0.08351774  0.88974041    -0.38300
N820        N  0.70792471  0.17391754  0.09786876    -0.38300
N821        N  0.60811051  0.15780893  0.91371117    -0.37800
N822        N  0.69060607  0.10078411  0.05874121    -0.37800
C823        C  0.44037659  0.10673993  0.95083517    -0.04400
C824        C  0.44730347  0.12684891  0.99071974    -0.01600
C825        C  0.46612941  0.15402115  0.97769351     0.03400
C826        C  0.47799099  0.16160128  0.92359043    -0.04400
C827        C  0.46788044  0.14147929  0.88202788    -0.01500
C828        C  0.44968180  0.11426366  0.89575437     0.03400
C829        C  0.43494062  0.11938647  0.04568468     0.38100
C830        C  0.47508869  0.14827528  0.82421108     0.38100
C831        C  0.44166807  0.09385489  0.85358342     0.36500
C832        C  0.47358203  0.17358247  0.02139211     0.36500
N833        N  0.43535049  0.07764838  0.81985683    -0.38300
N834        N  0.47899335  0.18879561  0.05692039    -0.38300
N835        N  0.47964694  0.15219256  0.77710753    -0.37800
N836        N  0.42481103  0.11340789  0.08922408    -0.37800
C837        C  0.52946051  0.02286383  0.96716235    -0.04400
C838        C  0.50447760  0.00318247  0.94398183    -0.01600
C839        C  0.48149603  0.00430719  0.95319718     0.03400
C840        C  0.48356213  0.02552585  0.98409957    -0.04400
C841        C  0.50844077  0.04520686  0.00722752    -0.01500
C842        C  0.53134329  0.04386664  0.99896864     0.03400
C843        C  0.50197031  0.98098887  0.91292464     0.38100
C844        C  0.51060604  0.06704015  0.03917630     0.38100
C845        C  0.55682772  0.06442274  0.02287523     0.36500
C846        C  0.45537629  0.98261907  0.93413146     0.36500
N847        N  0.57694435  0.08083997  0.04251507    -0.38300
N848        N  0.43453805  0.96518365  0.91951764    -0.38300
N849        N  0.51238125  0.08439819  0.06484842    -0.37800
N850        N  0.49991682  0.96329550  0.88809365    -0.37800
C851        C  0.64362019  0.10069128  0.44777455    -0.04400
C852        C  0.66275743  0.11648669  0.40636798    -0.01600
C853        C  0.66814033  0.14226371  0.39379321     0.03400
C854        C  0.65378268  0.15200924  0.42134360    -0.04400
C855        C  0.63506059  0.13642520  0.46327616    -0.01500
C856        C  0.62995996  0.11097368  0.47641830     0.03400
C857        C  0.67751236  0.10662830  0.37810619     0.38100
C858        C  0.62174581  0.14693589  0.49499582     0.38100
C859        C  0.60999507  0.09519441  0.51901664     0.36500
C860        C  0.68837449  0.15874093  0.35232002     0.36500
N861        N  0.59420634  0.08282952  0.55326449    -0.38300
N862        N  0.70456636  0.17198958  0.31939057    -0.38300
N863        N  0.61101790  0.15487533  0.52132310    -0.37800
N864        N  0.68939637  0.09883439  0.35565018    -0.37800
C865        C  0.61800704  0.00805851  0.78158828    -0.04400
C866        C  0.59946001  0.98513570  0.75115046    -0.01600
C867        C  0.60006671  0.98582655  0.69256212     0.03400
C868        C  0.61944853  0.00930143  0.66434772    -0.04400
C869        C  0.64021060  0.03089665  0.69450765    -0.01500
C870        C  0.63933901  0.03044748  0.75335121     0.03400
C871        C  0.57917320  0.96112836  0.78020744     0.38100
C872        C  0.66118984  0.05433133  0.66506087     0.38100
C873        C  0.65884239  0.05397976  0.78419660     0.36500
C874        C  0.58027957  0.96263752  0.66111991     0.36500
N875        N  0.67438038  0.07286543  0.80853978    -0.38300
N876        N  0.56457880  0.94417057  0.63593005    -0.38300
N877        N  0.67794262  0.07291429  0.64134129    -0.37800
N878        N  0.56304411  0.94201875  0.80352517    -0.37800
C879        C  0.43084891  0.08940217  0.51598059    -0.04400
C880        C  0.43358053  0.10557580  0.46977753    -0.01600
C881        C  0.45353128  0.13332231  0.46956544     0.03400
C882        C  0.46924368  0.14590829  0.51803526    -0.04400
C883        C  0.46375607  0.12973377  0.56633206    -0.01500
C884        C  0.44541059  0.10179122  0.56473112     0.03400
C885        C  0.41633190  0.09353296  0.42158161     0.38100
C886        C  0.47655333  0.14110059  0.61889550     0.38100
C887        C  0.44126086  0.08560785  0.61397942     0.36500
C888        C  0.45891609  0.14804824  0.41769808     0.36500
N889        N  0.43799124  0.07281625  0.65332472    -0.38300
N890        N  0.46301868  0.15949925  0.37593025    -0.38300
N891        N  0.48592940  0.14827187  0.66250748    -0.37800
N892        N  0.40213092  0.08395406  0.38373381    -0.37800
C893        C  0.39157676  0.02411441  0.29706746    -0.04400
C894        C  0.41297994  0.04772775  0.27246088    -0.01600
C895        C  0.41334450  0.05166320  0.21461762     0.03400
C896        C  0.39255152  0.03187393  0.18107825    -0.04400
C897        C  0.36951118  0.01006329  0.20636991    -0.01500
C898        C  0.36908144  0.00606628  0.26452817     0.03400
C899        C  0.43527565  0.06756750  0.30616513     0.38100
C900        C  0.34736342  0.99050107  0.17219089     0.38100
C901        C  0.34671633  0.98211696  0.28972539     0.36500
C902        C  0.43586604  0.07552115  0.18922843     0.36500
N903        N  0.32891379  0.96293493  0.30972469    -0.38300
N904        N  0.45393002  0.09454189  0.16934854    -0.38300
N905        N  0.32969620  0.97495677  0.14481862    -0.37800
N906        N  0.45313867  0.08341742  0.33272084    -0.37800
C907        C  0.48080898  0.01579916  0.47800466    -0.04400
C908        C  0.48963110  0.00693141  0.43311040    -0.01600
C909        C  0.51288314  0.00595481  0.43871080     0.03400
C910        C  0.52825492  0.01491717  0.48832976    -0.04400
C911        C  0.51926303  0.02353150  0.53344334    -0.01500
C912        C  0.49582450  0.02425843  0.52803104     0.03400
C913        C  0.47434659  0.99779043  0.38154241     0.38100
C914        C  0.53402373  0.03187157  0.58560898     0.38100
C915        C  0.48783719  0.03477173  0.57343706     0.36500
C916        C  0.51994632  0.99416450  0.39427556     0.36500
N917        N  0.48150276  0.04321613  0.60951017    -0.38300
N918        N  0.52534678  0.98455759  0.35894915    -0.38300
N919        N  0.54548987  0.03832807  0.62757163    -0.37800
N920        N  0.46214862  0.99043336  0.34052568    -0.37800
C921        C  0.53167984  0.88020690  0.44461323    -0.04400
C922        C  0.55885434  0.89223702  0.42657002    -0.01600
C923        C  0.57722230  0.92021550  0.43129383     0.03400
C924        C  0.56845393  0.93631702  0.45302881    -0.04400
C925        C  0.54215868  0.92406869  0.47530921    -0.01500
C926        C  0.52399019  0.89631849  0.47131818     0.03400
C927        C  0.56754269  0.87644120  0.39881712     0.38100
C928        C  0.53385848  0.93996467  0.50460467     0.38100
C929        C  0.49777711  0.88481215  0.49720973     0.36500
C930        C  0.60480655  0.93252666  0.41225222     0.36500
N931        N  0.47754487  0.87751685  0.51959775    -0.38300
N932        N  0.62688923  0.94238706  0.39738351    -0.38300
N933        N  0.52696403  0.95225080  0.52834490    -0.37800
N934        N  0.57479607  0.86440295  0.37531394    -0.37800
C935        C  0.52351194  0.66703479  0.52198767    -0.04400
C936        C  0.51488031  0.64205089  0.49741882    -0.01600
C937        C  0.53341949  0.63457763  0.48573625     0.03400
C938        C  0.56088703  0.65146174  0.50002204    -0.04400
C939        C  0.56927432  0.67526830  0.52904376    -0.01500
C940        C  0.55079819  0.68323827  0.53932706     0.03400
C941        C  0.48696295  0.62327618  0.48372203     0.38100
C942        C  0.59693350  0.69168134  0.54764788     0.38100
C943        C  0.55955967  0.70719434  0.57130659     0.36500
C944        C  0.52383177  0.60900287  0.45902172     0.36500
N945        N  0.56680827  0.72610536  0.59783460    -0.38300
N946        N  0.51590537  0.58871534  0.43735914    -0.38300
N947        N  0.61898680  0.70460742  0.56281245    -0.37800
N948        N  0.46517226  0.60665637  0.47256914    -0.37800
C949        C  0.49043929  0.77770253  0.45849133    -0.04400
C950        C  0.51443590  0.77832841  0.47136082    -0.01600
C951        C  0.51331700  0.75550765  0.49392621     0.03400
C952        C  0.48831915  0.73089184  0.50097655    -0.04400
C953        C  0.46465010  0.73123499  0.49156208    -0.01500
C954        C  0.46583697  0.75254463  0.46309613     0.03400
C955        C  0.54069712  0.80108707  0.45659241     0.38100
C956        C  0.43872320  0.71061941  0.51434164     0.38100
C957        C  0.44133592  0.74745752  0.43644536     0.36500
C958        C  0.53799516  0.75896157  0.51542043     0.36500
N959        N  0.42155614  0.74288410  0.41566185    -0.38300
N960        N  0.55817440  0.76284066  0.53253975    -0.38300
N961        N  0.41795466  0.69430785  0.53210388    -0.37800
N962        N  0.56214715  0.81868645  0.44548689    -0.37800
C963        C  0.37320342  0.46110156  0.43435143    -0.04400
C964        C  0.34712610  0.45077849  0.41266388    -0.01600
C965        C  0.33752633  0.46790530  0.40284498     0.03400
C966        C  0.35353759  0.49548392  0.41660597    -0.04400
C967        C  0.37989938  0.50570067  0.43675258    -0.01500
C968        C  0.38996155  0.48897261  0.44308587     0.03400
C969        C  0.33007222  0.42255499  0.40049831     0.38100
C970        C  0.39703227  0.53331658  0.45329914     0.38100
C971        C  0.41830277  0.50104085  0.45628471     0.36500
C972        C  0.31177022  0.45727060  0.37548730     0.36500
N973        N  0.44098616  0.51108673  0.46597925    -0.38300
N974        N  0.29132501  0.44879773  0.35318179    -0.38300
N975        N  0.41188142  0.55505622  0.46725811    -0.37800
N976        N  0.31649910  0.40003681  0.39052310    -0.37800
C977        C  0.43267865  0.63023802  0.49003291    -0.04400
C978        C  0.42995770  0.62618685  0.43141283    -0.01600
C979        C  0.40660583  0.60383174  0.40832441     0.03400
C980        C  0.38531429  0.58513511  0.44324504    -0.04400
C981        C  0.38868973  0.58858367  0.50204647    -0.01500
C982        C  0.41235475  0.61065515  0.52508624     0.03400
C983        C  0.45209848  0.64414224  0.39467195     0.38100
C984        C  0.36850246  0.56875988  0.53965469     0.38100
C985        C  0.41583399  0.61289367  0.58513639     0.36500
C986        C  0.40485215  0.60037758  0.34831951     0.36500
N987        N  0.41867097  0.61422360  0.63305194    -0.38300
N988        N  0.40430998  0.59801256  0.30034837    -0.38300
N989        N  0.35273591  0.55328107  0.57068639    -0.37800
N990        N  0.46981638  0.65829717  0.36540895    -0.37800
C991        C  0.23595395  0.51925123  0.47881637    -0.04400
C992        C  0.24999381  0.50952723  0.50816707    -0.01600
C993        C  0.27418381  0.51295905  0.48667994     0.03400
C994        C  0.28379772  0.52356636  0.43210166    -0.04400
C995        C  0.26852003  0.53183176  0.40169411    -0.01500
C996        C  0.24376441  0.52704175  0.42243918     0.03400
C997        C  0.23878036  0.49361702  0.55841367     0.38100
C998        C  0.27885974  0.54839328  0.35200237     0.38100
C999        C  0.22664312  0.53061814  0.38441960     0.36500
C1000       C  0.28966068  0.50676756  0.52368220     0.36500
N1001       N  0.21388340  0.53438946  0.35355124    -0.38300
N1002       N  0.30139115  0.50137850  0.55396632    -0.38300
N1003       N  0.28599906  0.56154415  0.31215590    -0.37800
N1004       N  0.23081661  0.48076155  0.59857016    -0.37800
C1005       C  0.19712326  0.62149580  0.44401394    -0.04400
C1006       C  0.17187581  0.59768328  0.45516688    -0.01600
C1007       C  0.17065403  0.57450192  0.47607149     0.03400
C1008       C  0.19454673  0.57563521  0.49139295    -0.04400
C1009       C  0.21931810  0.60025650  0.48482662    -0.01500
C1010       C  0.22065853  0.62108802  0.45407839     0.03400
C1011       C  0.14704164  0.59644310  0.44427716     0.38100
C1012       C  0.24355168  0.60497754  0.51210178     0.38100
C1013       C  0.24626940  0.64086165  0.42889093     0.36500
C1014       C  0.14477428  0.54969126  0.48148732     0.36500
N1015       N  0.26665227  0.65638532  0.40838408    -0.38300
N1016       N  0.12396065  0.53003336  0.48592765    -0.38300
N1017       N  0.26276885  0.60879983  0.53434130    -0.37800
N1018       N  0.12695946  0.59492609  0.43505739    -0.37800
C1019       C  0.35284870  0.87214920  0.53462080    -0.04400
C1020       C  0.37854485  0.89162660  0.51305790    -0.01600
C1021       C  0.38472846  0.91748808  0.49958501     0.03400
C1022       C  0.36625195  0.92524607  0.51075851    -0.04400
C1023       C  0.34143861  0.90669436  0.53614561    -0.01500
C1024       C  0.33461205  0.88024023  0.54751229     0.03400
C1025       C  0.39954890  0.88608037  0.50558076     0.38100
C1026       C  0.32251514  0.91452925  0.54872561     0.38100
C1027       C  0.30909819  0.86183138  0.57441071     0.36500
C1028       C  0.41070232  0.93629648  0.47446030     0.36500
N1029       N  0.28854896  0.84749004  0.59566930    -0.38300
N1030       N  0.43141466  0.95072612  0.45398583    -0.38300
N1031       N  0.30736197  0.92074026  0.55871048    -0.37800
N1032       N  0.41758027  0.88345393  0.50078421    -0.37800
C1033       C  0.43929706  0.82461070  0.46901785    -0.04400
C1034       C  0.42361298  0.83023304  0.43350341    -0.01600
C1035       C  0.40053784  0.82922534  0.45456468     0.03400
C1036       C  0.39222187  0.82167198  0.51063059    -0.04400
C1037       C  0.40710113  0.81501483  0.54512185    -0.01500
C1038       C  0.43159272  0.81878867  0.52620939     0.03400
C1039       C  0.43047783  0.83656043  0.37503339     0.38100
C1040       C  0.39587184  0.80148085  0.59790411     0.38100
C1041       C  0.44950731  0.81822306  0.56707331     0.36500
C1042       C  0.38501929  0.83559955  0.41809976     0.36500
N1043       N  0.46392239  0.81805971  0.59970144    -0.38300
N1044       N  0.37288740  0.84098167  0.38903304    -0.38300
N1045       N  0.38679370  0.79012061  0.63946627    -0.37800
N1046       N  0.43562554  0.84194029  0.32831559    -0.37800
C1047       C  0.24582257  0.72295767  0.45987331    -0.04400
C1048       C  0.25925462  0.74825538  0.43268834    -0.01600
C1049       C  0.28266805  0.77063359  0.45591815     0.03400
C1050       C  0.29184841  0.76957668  0.51035540    -0.04400
C1051       C  0.27856544  0.74411113  0.53680682    -0.01500
C1052       C  0.25426651  0.72245825  0.51540830     0.03400
C1053       C  0.24824657  0.75263397  0.38272836     0.38100
C1054       C  0.29127734  0.73821663  0.58153939     0.38100
C1055       C  0.23777622  0.70043340  0.55338858     0.36500
C1056       C  0.29832831  0.79395973  0.42048697     0.36500
N1057       N  0.22549929  0.68306385  0.58461907    -0.38300
N1058       N  0.31050266  0.81233382  0.39152756    -0.38300
N1059       N  0.30118521  0.73303131  0.61685131    -0.37800
N1060       N  0.24028589  0.75722442  0.34293330    -0.37800
C1061       C  0.53521786  0.88257950  0.04337712    -0.04400
C1062       C  0.53330804  0.90117432  0.07838104    -0.01600
C1063       C  0.54985834  0.92913021  0.06898226     0.03400
C1064       C  0.56942937  0.93964881  0.02652109    -0.04400
C1065       C  0.57361834  0.92216357  0.99552359    -0.01500
C1066       C  0.55647859  0.89409857  0.00239756     0.03400
C1067       C  0.51499751  0.89289327  0.12540189     0.38100
C1068       C  0.59489960  0.93316851  0.95366086     0.38100
C1069       C  0.56107302  0.87809055  0.96418357     0.36500
C1070       C  0.54700663  0.94747998  0.10394471     0.36500
N1071       N  0.56632266  0.86659474  0.93324261    -0.38300
N1072       N  0.54476106  0.96202926  0.13196206    -0.38300
N1073       N  0.61193017  0.94197605  0.92057911    -0.37800
N1074       N  0.50066316  0.88766911  0.16314096    -0.37800
C1075       C  0.48172389  0.82092403  0.17843856    -0.04400
C1076       C  0.45867101  0.80183180  0.20888625    -0.01600
C1077       C  0.45761251  0.80421636  0.26744055     0.03400
C1078       C  0.47983311  0.82521409  0.29628972    -0.04400
C1079       C  0.50210976  0.84480468  0.26531221    -0.01500
C1080       C  0.50409215  0.84124004  0.20787981     0.03400
C1081       C  0.43673447  0.77887884  0.18058219     0.38100
C1082       C  0.52272747  0.86923614  0.29140196     0.38100
C1083       C  0.53036077  0.85618305  0.18137064     0.36500
C1084       C  0.43325684  0.78565105  0.29790786     0.36500
N1085       N  0.55160193  0.86778642  0.16136529    -0.38300
N1086       N  0.41348680  0.77121154  0.32169329    -0.38300
N1087       N  0.53896579  0.88969531  0.30950570    -0.37800
N1088       N  0.41929392  0.76046254  0.15814891    -0.37800
C1089       C  0.53822644  0.67828905  0.92590356    -0.04400
C1090       C  0.56303153  0.68999066  0.89681004    -0.01600
C1091       C  0.58055122  0.68073239  0.90578752     0.03400
C1092       C  0.57368008  0.66019670  0.94508568    -0.04400
C1093       C  0.54892995  0.64887399  0.97461846    -0.01500
C1094       C  0.53206653  0.65873323  0.96689070     0.03400
C1095       C  0.57069433  0.71189469  0.85838208     0.38100
C1096       C  0.54010389  0.62629714  0.01209318     0.38100
C1097       C  0.50959241  0.65026210  0.00476380     0.36500
C1098       C  0.60577849  0.69270420  0.87547509     0.36500
N1099       N  0.49205799  0.64358330  0.03600531    -0.38300
N1100       N  0.62588986  0.70223572  0.85110783    -0.38300
N1101       N  0.53306890  0.60825495  0.04171996    -0.37800
N1102       N  0.57676053  0.72948427  0.82804888    -0.37800
C1103       C  0.48127818  0.67867659  0.78530094    -0.04400
C1104       C  0.46112725  0.68095171  0.75843781    -0.01600
C1105       C  0.45750540  0.67767243  0.69994873     0.03400
C1106       C  0.47415656  0.67242137  0.66699106    -0.04400
C1107       C  0.49159594  0.66652175  0.69474278    -0.01500
C1108       C  0.49514283  0.66962575  0.75330780     0.03400
C1109       C  0.44364964  0.68622003  0.79094310     0.38100
C1110       C  0.50642083  0.65745335  0.66401953     0.38100
C1111       C  0.51360204  0.66372371  0.77940443     0.36500
C1112       C  0.43605837  0.67907780  0.67380439     0.36500
N1113       N  0.52796216  0.65797554  0.79810401    -0.38300
N1114       N  0.41868723  0.67995259  0.65357324    -0.38300
N1115       N  0.51830330  0.64947963  0.64232729    -0.37800
N1116       N  0.42972749  0.69052494  0.81664511    -0.37800
C1117       C  0.50674989  0.74184399  0.95620124    -0.04400
C1118       C  0.51086685  0.76414120  0.92485782    -0.01600
C1119       C  0.50848384  0.78427371  0.95067374     0.03400
C1120       C  0.50453626  0.78412210  0.00924365    -0.04400
C1121       C  0.50943462  0.76682520  0.04104547    -0.01500
C1122       C  0.50901212  0.74509638  0.01520264     0.03400
C1123       C  0.52127818  0.76886512  0.86831754     0.38100
C1124       C  0.51930817  0.77342569  0.09777649     0.38100
C1125       C  0.51193808  0.72665289  0.04987786     0.36500
C1126       C  0.51208733  0.80621548  0.91662119     0.36500
N1127       N  0.51418524  0.71193809  0.07760579    -0.38300
N1128       N  0.51557565  0.82370502  0.88853669    -0.38300
N1129       N  0.52760649  0.77863122  0.14282339    -0.37800
N1130       N  0.52973731  0.77309222  0.82324309    -0.37800
C1131       C  0.37955029  0.46492807  0.98202937    -0.04400
C1132       C  0.35208901  0.45504336  0.99006482    -0.01600
C1133       C  0.34355812  0.47263701  0.00362333     0.03400
C1134       C  0.36231290  0.50080904  0.00662945    -0.04400
C1135       C  0.39021984  0.50988295  0.00573149    -0.01500
C1136       C  0.39856807  0.49219610  0.99209109     0.03400
C1137       C  0.33246318  0.42676665  0.98297536     0.38100
C1138       C  0.41108518  0.53682060  0.02096267     0.38100
C1139       C  0.42715659  0.50215801  0.98988432     0.36500
C1140       C  0.31575997  0.46103569  0.02030357     0.36500
N1141       N  0.45000764  0.51052328  0.98873990    -0.38300
N1142       N  0.29359284  0.45113845  0.03447481    -0.38300
N1143       N  0.42865551  0.55787742  0.03366764    -0.37800
N1144       N  0.31683040  0.40420338  0.97722764    -0.37800
C1145       C  0.34667513  0.54325753  0.14973026    -0.04400
C1146       C  0.34352994  0.56171915  0.18059965    -0.01600
C1147       C  0.34531435  0.56237954  0.23936608     0.03400
C1148       C  0.34806111  0.54327736  0.26864713    -0.04400
C1149       C  0.35279895  0.52590561  0.23821510    -0.01500
C1150       C  0.35213300  0.52587638  0.17911720     0.03400
C1151       C  0.33710038  0.57931962  0.15275047     0.38100
C1152       C  0.35786566  0.50754810  0.26714077     0.38100
C1153       C  0.35499434  0.50625460  0.14975737     0.36500
C1154       C  0.34515299  0.58333949  0.27005458     0.36500
N1155       N  0.35726599  0.48993764  0.12931803    -0.38300
N1156       N  0.34571579  0.60039407  0.29459641    -0.38300
N1157       N  0.36246068  0.49284320  0.28818714    -0.37800
N1158       N  0.33109751  0.59303521  0.13206023    -0.37800
C1159       C  0.39507685  0.59292296  0.98857876    -0.04400
C1160       C  0.41408064  0.59125980  0.95623706    -0.01600
C1161       C  0.43964056  0.61431850  0.94502525     0.03400
C1162       C  0.44397550  0.64025710  0.95200068    -0.04400
C1163       C  0.42143799  0.64115995  0.97112319    -0.01500
C1164       C  0.39858852  0.61827621  0.99434840     0.03400
C1165       C  0.40573153  0.56694988  0.92573191     0.38100
C1166       C  0.41979159  0.66445322  0.96150712     0.38100
C1167       C  0.37754257  0.62082747  0.01897100     0.36500
C1168       C  0.46054902  0.61001956  0.92733380     0.36500
N1169       N  0.36091573  0.62360016  0.03676511    -0.38300
N1170       N  0.47659156  0.60546900  0.91380446    -0.38300
N1171       N  0.41829712  0.68290514  0.95392524    -0.37800
N1172       N  0.39896217  0.54798071  0.89969922    -0.37800
C1173       C  0.19152780  0.52965130  0.77320199    -0.04400
C1174       C  0.18967142  0.50777153  0.74437859    -0.01600
C1175       C  0.18822312  0.50644430  0.68572670     0.03400
C1176       C  0.19050889  0.52767593  0.65424645    -0.04400
C1177       C  0.18848643  0.54740519  0.68226336    -0.01500
C1178       C  0.18709907  0.54723729  0.74146366     0.03400
C1179       C  0.18861550  0.48590744  0.77416322     0.38100
C1180       C  0.18801059  0.56800434  0.65054379     0.38100
C1181       C  0.17807400  0.56296230  0.76779229     0.36500
C1182       C  0.18226893  0.48217748  0.65779236     0.36500
N1183       N  0.16947094  0.57484334  0.78661292    -0.38300
N1184       N  0.17659777  0.46247268  0.63595813    -0.38300
N1185       N  0.18758022  0.58449357  0.62550129    -0.37800
N1186       N  0.18844744  0.46837568  0.79587173    -0.37800
C1187       C  0.29437560  0.52863727  0.96834956    -0.04400
C1188       C  0.29473552  0.54254967  0.91994073    -0.01600
C1189       C  0.27267733  0.54479301  0.90745082     0.03400
C1190       C  0.24685126  0.52690725  0.93172666    -0.04400
C1191       C  0.24491231  0.50662823  0.96768916    -0.01500
C1192       C  0.26860279  0.50887127  0.98913956     0.03400
C1193       C  0.31576624  0.55123691  0.87818445     0.38100
C1194       C  0.21959935  0.48213647  0.97975046     0.38100
C1195       C  0.26600689  0.49016893  0.03171398     0.36500
C1196       C  0.27727040  0.56594902  0.86923197     0.36500
N1197       N  0.26340942  0.47536246  0.06646747    -0.38300
N1198       N  0.28102285  0.58300168  0.83933467    -0.38300
N1199       N  0.20005523  0.46190859  0.99001072    -0.37800
N1200       N  0.33231703  0.55799762  0.84445263    -0.37800
C1201       C  0.20548015  0.67015465  0.16351343    -0.04400
C1202       C  0.20073114  0.64772961  0.19484319    -0.01600
C1203       C  0.19875423  0.64762600  0.25403033     0.03400
C1204       C  0.19957093  0.66906086  0.28172064    -0.04400
C1205       C  0.19865779  0.68845000  0.24913862    -0.01500
C1206       C  0.20186318  0.68918423  0.19066724     0.03400
C1207       C  0.19533643  0.62383566  0.16674977     0.38100
C1208       C  0.19259918  0.70660617  0.27549090     0.38100
C1209       C  0.19898429  0.70811282  0.15781912     0.36500
C1210       C  0.19602295  0.62553757  0.28606806     0.36500
N1211       N  0.19609202  0.72284773  0.13170403    -0.38300
N1212       N  0.19364050  0.60766476  0.31110283    -0.38300
N1213       N  0.18701869  0.72064643  0.29599280    -0.37800
N1214       N  0.18969984  0.60392140  0.14594754    -0.37800
C1215       C  0.21370100  0.63365859  0.98675925    -0.04400
C1216       C  0.22105219  0.61882012  0.01957420    -0.01600
C1217       C  0.21725471  0.59469546  0.99921748     0.03400
C1218       C  0.21257620  0.58853910  0.94132947    -0.04400
C1219       C  0.21172369  0.60718826  0.90623267    -0.01500
C1220       C  0.20887918  0.62750403  0.92928340     0.03400
C1221       C  0.23654922  0.63048164  0.06997353     0.38100
C1222       C  0.22032993  0.60961512  0.84881026     0.38100
C1223       C  0.20178890  0.64238176  0.89313325     0.36500
C1224       C  0.21904525  0.57694876  0.03816461     0.36500
N1225       N  0.19541039  0.65349186  0.86357482    -0.38300
N1226       N  0.22058511  0.56291961  0.06947427    -0.38300
N1227       N  0.22887634  0.61277643  0.80395189    -0.37800
N1228       N  0.24981935  0.64031427  0.10896780    -0.37800
C1229       C  0.36157184  0.88862411  0.96389529    -0.04400
C1230       C  0.34708951  0.89817355  0.93500955    -0.01600
C1231       C  0.35294206  0.92442463  0.94383115     0.03400
C1232       C  0.37117470  0.94063245  0.98579031    -0.04400
C1233       C  0.38177729  0.92925916  0.02134488    -0.01500
C1234       C  0.37617666  0.90324106  0.01179368     0.03400
C1235       C  0.32471423  0.88052137  0.89904759     0.38100
C1236       C  0.39950011  0.94452558  0.06725474     0.38100
C1237       C  0.38333040  0.89111572  0.05523427     0.36500
C1238       C  0.33970676  0.93447517  0.91025687     0.36500
N1239       N  0.38944218  0.88247864  0.09141738    -0.38300
N1240       N  0.32916583  0.94244752  0.88322791    -0.38300
N1241       N  0.41360096  0.95651058  0.10393343    -0.37800
N1242       N  0.30657334  0.86653117  0.87089648    -0.37800
C1243       C  0.35390104  0.83112461  0.80144189    -0.04400
C1244       C  0.32860308  0.82046881  0.77594092    -0.01600
C1245       C  0.32595137  0.81757479  0.71732327     0.03400
C1246       C  0.34836213  0.82350498  0.68284646    -0.04400
C1247       C  0.37420764  0.83656526  0.70877118    -0.01500
C1248       C  0.37683537  0.84135367  0.76707595     0.03400
C1249       C  0.30529447  0.81375948  0.80994517     0.38100
C1250       C  0.39870761  0.84632920  0.67694631     0.38100
C1251       C  0.40332379  0.85866857  0.79133067     0.36500
C1252       C  0.30038741  0.81067018  0.69314939     0.36500
N1253       N  0.42438247  0.87268405  0.81063574    -0.38300
N1254       N  0.27977680  0.80496926  0.67480789    -0.38300
N1255       N  0.41897266  0.85505949  0.65346495    -0.37800
N1256       N  0.28658904  0.80817233  0.83676153    -0.37800
C1257       C  0.44283534  0.82141400  0.00352699    -0.04400
C1258       C  0.43589201  0.81893250  0.94588985    -0.01600
C1259       C  0.41414830  0.82108192  0.92716648     0.03400
C1260       C  0.40014727  0.82778391  0.96467034    -0.04400
C1261       C  0.40507948  0.82749401  0.02214202    -0.01500
C1262       C  0.42610109  0.82454155  0.04147407     0.03400
C1263       C  0.45109416  0.81469219  0.90435572     0.38100
C1264       C  0.38677777  0.82766375  0.06239940     0.38100
C1265       C  0.42934514  0.82422308  0.10127501     0.36500
C1266       C  0.40530194  0.81446624  0.86987028     0.36500
N1267       N  0.43075599  0.82481157  0.14942310    -0.38300
N1268       N  0.39826514  0.80780967  0.82448374    -0.38300
N1269       N  0.37231504  0.82697204  0.09601278    -0.37800
N1270       N  0.46223471  0.81094786  0.86939215    -0.37800
C1271       C  0.30870320  0.78635654  0.96926703    -0.04400
C1272       C  0.29550590  0.76422453  0.93284916    -0.01600
C1273       C  0.27257534  0.73966943  0.95056930     0.03400
C1274       C  0.26406204  0.73481291  0.00754957    -0.04400
C1275       C  0.27629634  0.75755314  0.04312994    -0.01500
C1276       C  0.29863481  0.78255218  0.02485624     0.03400
C1277       C  0.30481733  0.76599606  0.87599414     0.38100
C1278       C  0.26495113  0.75683732  0.09733148     0.38100
C1279       C  0.31104773  0.80423573  0.06486085     0.36500
C1280       C  0.25676523  0.72045775  0.90750576     0.36500
N1281       N  0.32002703  0.82122729  0.09741751    -0.38300
N1282       N  0.24495237  0.70588846  0.87151789    -0.38300
N1283       N  0.25689881  0.75744465  0.14102133    -0.37800
N1284       N  0.31175745  0.76598932  0.83078690    -0.37800
C1285       C  0.10914992  0.66275323  0.99356459    -0.04400
C1286       C  0.13003389  0.67638216  0.95385379    -0.01600
C1287       C  0.15606478  0.68145308  0.96417326     0.03400
C1288       C  0.16200236  0.67321010  0.01508806    -0.04400
C1289       C  0.14099711  0.66010307  0.05542821    -0.01500
C1290       C  0.11510553  0.65554817  0.04513613     0.03400
C1291       C  0.12492520  0.68571588  0.90210019     0.38100
C1292       C  0.14496258  0.65045892  0.10776502     0.38100
C1293       C  0.09428017  0.64267993  0.08761004     0.36500
C1294       C  0.17622885  0.69431856  0.92048637     0.36500
N1295       N  0.07783270  0.63270099  0.12181437    -0.38300
N1296       N  0.19208360  0.70495700  0.88539413    -0.38300
N1297       N  0.14608322  0.64157108  0.14996662    -0.37800
N1298       N  0.12114988  0.69333125  0.86076760    -0.37800
C1299       C  0.94277701  0.58488436  0.01133217    -0.04400
C1300       C  0.92495344  0.59209231  0.99256377    -0.01600
C1301       C  0.89684349  0.57474373  0.00102837     0.03400
C1302       C  0.88587462  0.54860523  0.02490770    -0.04400
C1303       C  0.90470146  0.54503487  0.05507277    -0.01500
C1304       C  0.93275412  0.56202574  0.04512687     0.03400
C1305       C  0.93571506  0.61763009  0.96457982     0.38100
C1306       C  0.89651834  0.52735848  0.10290659     0.38100
C1307       C  0.95147959  0.55625210  0.07066273     0.36500
C1308       C  0.88064826  0.58613185  0.99205153     0.36500
N1309       N  0.96637257  0.55163954  0.09117301    -0.38300
N1310       N  0.86832521  0.59591675  0.98495555    -0.38300
N1311       N  0.89073094  0.51393658  0.14223520    -0.37800
N1312       N  0.94435080  0.63806169  0.94260662    -0.37800
C1313       C  0.92201980  0.37460881  0.92137818    -0.04400
C1314       C  0.91249404  0.37901079  0.87099319    -0.01600
C1315       C  0.88558897  0.37247092  0.86650392     0.03400
C1316       C  0.86786886  0.36203720  0.91311781    -0.04400
C1317       C  0.87769137  0.35779946  0.96365546    -0.01500
C1318       C  0.90395566  0.36271597  0.96678166     0.03400
C1319       C  0.93049440  0.39029672  0.82328195     0.38100
C1320       C  0.86185000  0.35064698  0.01456377     0.38100
C1321       C  0.91264804  0.35665678  0.01832386     0.36500
C1322       C  0.87697778  0.37725846  0.81362079     0.36500
N1323       N  0.91933830  0.35144229  0.05922490    -0.38300
N1324       N  0.87155638  0.38195410  0.77053358    -0.38300
N1325       N  0.84965755  0.34517394  0.05569842    -0.37800
N1326       N  0.94478635  0.39931075  0.78518221    -0.37800
C1327       C  0.08879236  0.46370885  0.94730253    -0.04400
C1328       C  0.10193089  0.49156405  0.95613687    -0.01600
C1329       C  0.13003560  0.50859539  0.94864895     0.03400
C1330       C  0.14560779  0.49818978  0.93131636    -0.04400
C1331       C  0.13227037  0.47016195  0.92227486    -0.01500
C1332       C  0.10405709  0.45317048  0.92973560     0.03400
C1333       C  0.08644759  0.50309188  0.97188662     0.38100
C1334       C  0.14719671  0.45816188  0.90636232     0.38100
C1335       C  0.09084951  0.42461952  0.92129845     0.36500
C1336       C  0.14275161  0.53671266  0.96150906     0.36500
N1337       N  0.08029167  0.40184581  0.91464112    -0.38300
N1338       N  0.15208288  0.55898709  0.97218458    -0.38300
N1339       N  0.15832888  0.44756321  0.89523739    -0.37800
N1340       N  0.07436206  0.51255160  0.98434585    -0.37800
C1341       C  0.00652693  0.49585729  0.96642514    -0.04400
C1342       C  0.99774217  0.50229325  0.91757736    -0.01600
C1343       C  0.00295809  0.52819658  0.91009567     0.03400
C1344       C  0.01678957  0.54768349  0.95194044    -0.04400
C1345       C  0.02558774  0.54104071  0.00072665    -0.01500
C1346       C  0.01987496  0.51507623  0.00852647     0.03400
C1347       C  0.98200555  0.48180622  0.87643278     0.38100
C1348       C  0.04150161  0.56106074  0.04248677     0.38100
C1349       C  0.02846631  0.50849235  0.05959086     0.36500
C1350       C  0.99337306  0.53429988  0.85994961     0.36500
N1351       N  0.03529728  0.50336015  0.10040137    -0.38300
N1352       N  0.98575441  0.53900912  0.81972972    -0.38300
N1353       N  0.05421092  0.57680846  0.07606415    -0.37800
N1354       N  0.96924813  0.46535563  0.84405099    -0.37800
C1355       C  0.09228258  0.64824175  0.46666112    -0.04400
C1356       C  0.11315194  0.65790918  0.50683684    -0.01600
C1357       C  0.13846573  0.66223398  0.49278971     0.03400
C1358       C  0.14504339  0.66037862  0.43684151    -0.04400
C1359       C  0.12468154  0.65170998  0.39590109    -0.01500
C1360       C  0.09834129  0.64508914  0.41087221     0.03400
C1361       C  0.10890452  0.66335519  0.56372965     0.38100
C1362       C  0.13046856  0.64910091  0.33834168     0.38100
C1363       C  0.07726445  0.63357299  0.36916478     0.36500
C1364       C  0.15697789  0.66675953  0.53766000     0.36500
N1365       N  0.06051572  0.62412769  0.33572071    -0.38300
N1366       N  0.17102740  0.67001882  0.57463579    -0.38300
N1367       N  0.13464149  0.64664160  0.29227712    -0.37800
N1368       N  0.10576601  0.66762844  0.60923666    -0.37800
C1369       C  0.87222099  0.53289165  0.43279534    -0.04400
C1370       C  0.87791270  0.53686219  0.49049344    -0.01600
C1371       C  0.90470902  0.55293287  0.50945333     0.03400
C1372       C  0.92637270  0.56591258  0.47084528    -0.04400
C1373       C  0.92080039  0.56064000  0.41332514    -0.01500
C1374       C  0.89401892  0.54348400  0.39463102     0.03400
C1375       C  0.85634103  0.52256151  0.53095341     0.38100
C1376       C  0.94279709  0.57136341  0.37334271     0.38100
C1377       C  0.88961698  0.53543571  0.33672693     0.36500
C1378       C  0.90967059  0.55513443  0.56909794     0.36500
N1379       N  0.88736867  0.52878025  0.29068423    -0.38300
N1380       N  0.91314134  0.55599267  0.61676591    -0.38300
N1381       N  0.96033217  0.57982121  0.34148658    -0.37800
N1382       N  0.83946741  0.51101941  0.56376122    -0.37800
C1383       C  0.01016263  0.65254845  0.67678796    -0.04400
C1384       C  0.98703080  0.63957089  0.71086786    -0.01600
C1385       C  0.98975931  0.64133763  0.76916142     0.03400
C1386       C  0.01555377  0.65699623  0.79287456    -0.04400
C1387       C  0.03770540  0.67443132  0.75873425    -0.01500
C1388       C  0.03509700  0.67193511  0.70018920     0.03400
C1389       C  0.96075611  0.62254018  0.68601062     0.38100
C1390       C  0.06354448  0.69299985  0.78382934     0.38100
C1391       C  0.05847849  0.68710828  0.66447754     0.36500
C1392       C  0.96662981  0.62440698  0.80457330     0.36500
N1393       N  0.07709910  0.69925368  0.63583813    -0.38300
N1394       N  0.94824183  0.61063162  0.83268252    -0.38300
N1395       N  0.08412339  0.70811637  0.80376909    -0.37800
N1396       N  0.93962361  0.60922325  0.66658912    -0.37800
C1397       C  0.85761298  0.36794047  0.51099974    -0.04400
C1398       C  0.86681431  0.34997942  0.51141472    -0.01600
C1399       C  0.89424398  0.35923404  0.50157027     0.03400
C1400       C  0.91300445  0.38633000  0.48944347    -0.04400
C1401       C  0.90425178  0.40440091  0.48979883    -0.01500
C1402       C  0.87716539  0.39554542  0.50184455     0.03400
C1403       C  0.84849114  0.32165272  0.52173042     0.38100
C1404       C  0.92320923  0.43259061  0.47780739     0.38100
C1405       C  0.87037763  0.41569648  0.50404273     0.36500
C1406       C  0.90288408  0.34043947  0.50167397     0.36500
N1407       N  0.86641951  0.43280008  0.50654137    -0.38300
N1408       N  0.90968483  0.32539057  0.50191483    -0.38300
N1409       N  0.93802978  0.45497896  0.46763144    -0.37800
N1410       N  0.83428965  0.29884092  0.52813037    -0.37800
C1411       C  0.07939749  0.44785970  0.48082430    -0.04400
C1412       C  0.09866536  0.45570869  0.43784068    -0.01600
C1413       C  0.12639266  0.47299566  0.44905042     0.03400
C1414       C  0.13550262  0.48228778  0.50405121    -0.04400
C1415       C  0.11610340  0.47305363  0.54763219    -0.01500
C1416       C  0.08828455  0.45613460  0.53595302     0.03400
C1417       C  0.08991449  0.44621033  0.38135315     0.38100
C1418       C  0.12418103  0.48079484  0.60495859     0.38100
C1419       C  0.06868956  0.44862059  0.58045797     0.36500
C1420       C  0.14509607  0.48205735  0.40256254     0.36500
N1421       N  0.05308700  0.44270902  0.61593515    -0.38300
N1422       N  0.15940855  0.48863113  0.36449535    -0.38300
N1423       N  0.12928233  0.48637572  0.65145117    -0.37800
N1424       N  0.08312781  0.43873642  0.33624422    -0.37800
C1425       C  0.98512482  0.39526948  0.27212166    -0.04400
C1426       C  0.00254596  0.38946620  0.24435714    -0.01600
C1427       C  0.00358607  0.38994352  0.18544297     0.03400
C1428       C  0.98695130  0.39597617  0.15469330    -0.04400
C1429       C  0.96680650  0.39774231  0.18276594    -0.01500
C1430       C  0.96593495  0.39740512  0.24135665     0.03400
C1431       C  0.02045463  0.38459903  0.27627631     0.38100
C1432       C  0.94728185  0.40051049  0.15147088     0.38100
C1433       C  0.94546950  0.39959711  0.27017910     0.36500
C1434       C  0.02308157  0.38616865  0.15706318     0.36500
N1435       N  0.92904404  0.40116373  0.29311685    -0.38300
N1436       N  0.03862918  0.38308545  0.13455713    -0.38300
N1437       N  0.93170305  0.40272419  0.12662906    -0.37800
N1438       N  0.03455136  0.38046633  0.30182776    -0.37800
C1439       C  0.01350054  0.49381148  0.51669388    -0.04400
C1440       C  0.99513290  0.49310385  0.55588580    -0.01600
C1441       C  0.99549295  0.51657035  0.56718267     0.03400
C1442       C  0.01497918  0.54071110  0.54118352    -0.04400
C1443       C  0.03552671  0.54191805  0.50840272    -0.01500
C1444       C  0.03464470  0.51845075  0.49559858     0.03400
C1445       C  0.97455618  0.46800606  0.58105342     0.38100
C1446       C  0.05691572  0.56721158  0.48560537     0.38100
C1447       C  0.05500269  0.51960958  0.45918229     0.36500
C1448       C  0.97423888  0.51527693  0.60061501     0.36500
N1449       N  0.07119446  0.52067419  0.42984560    -0.38300
N1450       N  0.95708597  0.51411920  0.62676869    -0.38300
N1451       N  0.07390721  0.58734091  0.46720312    -0.37800
N1452       N  0.95820555  0.44797082  0.60115503    -0.37800
loop_ 
_geom_bond_atom_site_label_1 
_geom_bond_atom_site_label_2 
_geom_bond_distance 
_geom_bond_site_symmetry_2 
_ccdc_geom_bond_type 
O1            C4   1.268       .  A
O1           Cd6   2.387       .  S
C2           O11   1.267       .  A
C2            O7   1.271       .  A
C2         C1439   1.469       .  S
O3            C9   1.264       .  A
O3           Cd6   2.378       .  S
C4           O12   1.272       .  A
C4         C1425   1.476       .  S
C5           O10   1.278       .  A
C5            O8   1.266       .  A
C5         C1411   1.490       .  S
Cd6          O13   2.508       .  S
Cd6          O12   2.464       .  S
Cd6          O11   2.415   1_655  S
Cd6           O7   2.396   1_655  S
Cd6          O10   2.493   1_655  S
Cd6           O8   2.387   1_655  S
C9           O13   1.279       .  A
C9         C1400   1.497       .  S
O14          C17   1.264       .  A
O14         Cd19   2.386       .  S
C15          O24   1.265       .  A
C15          O20   1.268       .  A
C15        C1442   1.467       .  S
O16          C22   1.274       .  A
O16         Cd19   2.506   1_655  S
C17          O25   1.269       .  A
C17        C1383   1.472       .  S
C18          O23   1.274       .  A
C18          O21   1.262       .  A
C18        C1355   1.510       .  S
Cd19         O26   2.418   1_455  S
Cd19         O25   2.502       .  S
Cd19         O24   2.370       .  S
Cd19         O20   2.458       .  S
Cd19         O23   2.554       .  S
Cd19         O21   2.393       .  S
C22          O26   1.262       .  A
C22        C1372   1.497       .  S
O27          C30   1.266       .  A
O27         Cd32   2.390   1_654  S
C28          O37   1.265       .  A
C28          O33   1.267   1_456  A
C28        C1341   1.469       .  S
O29          C35   1.273       .  A
O29         Cd32   2.529       .  S
C30          O38   1.271       .  A
C30        C1428   1.482       .  S
C31          O36   1.268       .  A
C31          O34   1.262       .  A
C31        C1313   1.495       .  S
Cd32         O39   2.403   1_556  S
Cd32         O38   2.476   1_456  S
Cd32         O37   2.403       .  S
Cd32         O33   2.416   1_456  S
Cd32         O36   2.487   1_455  S
Cd32         O34   2.444   1_455  S
C35          O39   1.260   1_556  A
C35        C1327   1.492       .  S
O40          C43   1.264       .  A
O40         Cd45   2.371       .  S
C41          O50   1.266       .  A
C41          O46   1.269       .  A
C41        C1344   1.478       .  S
O42          C48   1.274   1_554  A
O42         Cd45   2.520   1_554  S
C43          O51   1.269       .  A
C43        C1386   1.468       .  S
C44          O49   1.276   1_556  A
C44          O47   1.261       .  A
C44        C1299   1.487   1_556  S
Cd45         O52   2.425       .  S
Cd45         O51   2.493       .  S
Cd45         O50   2.368       .  S
Cd45         O46   2.439       .  S
Cd45         O49   2.531   1_456  S
Cd45         O47   2.418   1_455  S
C48          O52   1.263       .  A
C48        C1285   1.499       .  S
C53          C54   1.532       .  S
C53          C59   1.555       .  S
C53          C57   1.537       .  S
C53        C1229   1.565       .  S
C54          H61   1.086       .  S
C54          C55   1.358       .  D
C55          C56   1.558       .  S
C55        C1243   1.497       .  S
C56          C60   1.541       .  S
C56          C58   1.556       .  S
C56          H62   1.105       .  S
C57          H63   1.084       .  S
C57          C58   1.375       .  D
C58        C1271   1.527       .  S
C59          H64   1.083       .  S
C59          C60   1.372       .  D
C60        C1260   1.516       .  S
C65          C66   1.539   1_554  S
C65          C71   1.547       .  S
C65          C69   1.537       .  S
C65        C1274   1.572       .  S
C66          H73   1.086       .  S
C66          C67   1.361   1_556  D
C67          C68   1.556       .  S
C67        C1215   1.503   1_554  S
C68          C72   1.553       .  S
C68          C70   1.551       .  S
C68          H74   1.109       .  S
C69          H75   1.085   1_554  S
C69          C70   1.373       .  D
C70        C1288   1.520       .  S
C71          H76   1.081       .  S
C71          C72   1.373       .  D
C72        C1201   1.511       .  S
C77          C78   1.527       .  S
C77          C83   1.534       .  S
C77          C81   1.558       .  S
C77        C1190   1.565       .  S
C78          H85   1.086       .  S
C78          C79   1.362       .  D
C79          C80   1.567       .  S
C79        C1218   1.514       .  S
C80          C84   1.554       .  S
C80          C82   1.542       .  S
C80          H86   1.105       .  S
C81          H87   1.045       .  S
C81          C82   1.373       .  D
C82        C1330   1.510       .  S
C83          H88   1.085       .  S
C83          C84   1.369       .  D
C84        C1173   1.522       .  S
C89          C90   1.535       .  S
C89          C95   1.544   1_556  S
C89          C93   1.543       .  S
C89        C1187   1.557       .  S
C90          H97   1.081       .  S
C90          C91   1.353   1_556  D
C91          C92   1.554       .  S
C91        C1159   1.501   1_554  S
C92          C96   1.543       .  S
C92          C94   1.555       .  S
C92          H98   1.101       .  S
C93          H99   1.085       .  S
C93          C94   1.381   1_556  D
C94        C1134   1.530       .  S
C95         H100   1.085       .  S
C95          C96   1.367       .  D
C96        C1145   1.504       .  S
C101        C102   1.541       .  S
C101        C107   1.555       .  S
C101        C105   1.530       .  S
C101       C1117   1.566       .  S
C102        H109   1.082       .  S
C102        C103   1.375       .  D
C103        C104   1.552       .  S
C103       C1162   1.531       .  S
C104        C108   1.535       .  S
C104        C106   1.555       .  S
C104        H110   1.096       .  S
C105        H111   1.086       .  S
C105        C106   1.362       .  D
C106       C1089   1.496       .  S
C107        H112   1.077       .  S
C107        C108   1.369       .  D
C108       C1103   1.514       .  S
C113        C114   1.549       .  S
C113        C119   1.537       .  S
C113        C117   1.545       .  S
C113       C1120   1.568       .  S
C114        H121   1.084   1_554  S
C114        C115   1.373       .  D
C115        C116   1.550       .  S
C115       C1257   1.530       .  S
C116        C120   1.556       .  S
C116        C118   1.556       .  S
C116        H122   1.093       .  S
C117        H123   1.078       .  S
C117        C118   1.381       .  D
C118       C1061   1.551       .  S
C119        H124   1.079       .  S
C119        C120   1.358       .  D
C120       C1075   1.496       .  S
C125        C126   1.550       .  S
C125        C131   1.520       .  S
C125        C129   1.554       .  S
C125       C1050   1.564       .  S
C126        H133   1.079       .  S
C126        C127   1.376       .  D
C127        C128   1.550       .  S
C127       C1246   1.530       .  S
C128        C132   1.557       .  S
C128        C130   1.542       .  S
C128        H134   1.100       .  S
C129        H135   1.084       .  S
C129        C130   1.373       .  D
C130       C1019   1.513       .  S
C131        H136   1.087       .  S
C131        C132   1.354       .  D
C132       C1036   1.496       .  S
C137        C138   1.545       .  S
C137        C143   1.537       .  S
C137        C141   1.526       .  S
C137       C1047   1.569       .  S
C138        H145   1.084       .  S
C138        C139   1.371       .  D
C139        C140   1.549       .  S
C139       C1204   1.506       .  S
C140        C144   1.554       .  S
C140        C142   1.557       .  S
C140        H146   1.106       .  S
C141        H147   1.086       .  S
C141        C142   1.370       .  D
C142       C1358   1.512       .  S
C143        H148   1.080       .  S
C143        C144   1.369       .  D
C144       C1005   1.521       .  S
C149        C150   1.543       .  S
C149        C155   1.538       .  S
C149        C153   1.535       .  S
C149        C991   1.567       .  S
C150        H157   1.082       .  S
C150        C151   1.369       .  D
C151        C152   1.544       .  S
C151       C1176   1.499       .  S
C152        C156   1.547       .  S
C152        C154   1.551       .  S
C152        H158   1.108       .  S
C153        H159   1.085       .  S
C153        C154   1.373       .  D
C154       C1414   1.509       .  S
C155        H160   1.083       .  S
C155        C156   1.367       .  D
C156       C1008   1.513       .  S
C161        C162   1.540       .  S
C161        C167   1.538       .  S
C161        C165   1.551       .  S
C161        C994   1.570       .  S
C162        H169   1.082       .  S
C162        C163   1.361       .  D
C163        C164   1.541       .  S
C163       C1148   1.498       .  S
C164        C168   1.550       .  S
C164        C166   1.549       .  S
C164        H170   1.109       .  S
C165        H171   1.084       .  S
C165        C166   1.374       .  D
C166        C966   1.511       .  S
C167        H172   1.086       .  S
C167        C168   1.367       .  D
C168        C980   1.513       .  S
C173        C174   1.529       .  S
C173        C179   1.538       .  S
C173        C177   1.551       .  S
C173        C952   1.559       .  S
C174        H181   1.087       .  S
C174        C175   1.365       .  D
C175        C176   1.552       .  S
C175       C1106   1.510       .  S
C176        C180   1.553       .  S
C176        C178   1.551       .  S
C176        H182   1.109       .  S
C177        H183   1.083       .  S
C177        C178   1.376       .  D
C178        C935   1.508       .  S
C179        H184   1.086       .  S
C179        C180   1.357       .  D
C180        C977   1.509       .  S
C185        C186   1.529       .  S
C185        C191   1.540       .  S
C185        C189   1.550       .  S
C185        C949   1.561       .  S
C186        H193   1.087       .  S
C186        C187   1.363       .  D
C187        C188   1.547       .  S
C187       C1078   1.495       .  S
C188        C192   1.552       .  S
C188        C190   1.548       .  S
C188        H194   1.108       .  S
C189        H195   1.081       .  S
C189        C190   1.369       .  D
C190        C921   1.503       .  S
C191        H196   1.084       .  S
C191        C192   1.366       .  D
C192       C1033   1.515       .  S
O197        C200   1.266       .  A
O197       Cd202   2.385       .  S
C198        O207   1.266       .  A
C198        O203   1.267       .  A
C198        C907   1.480       .  S
O199        C205   1.268       .  A
O199       Cd202   2.508       .  S
C200        O208   1.270       .  A
C200        C893   1.476       .  S
C201        O206   1.273       .  A
C201        O204   1.262       .  A
C201       C1022   1.496       .  S
Cd202       O209   2.438       .  S
Cd202       O208   2.460       .  S
Cd202       O207   2.412       .  S
Cd202       O203   2.425       .  S
Cd202       O206   2.541   1_545  S
Cd202       O204   2.422   1_545  S
C205        O209   1.263       .  A
C205        C879   1.494       .  S
O210        C213   1.268       .  A
O210       Cd215   2.380       .  S
C211        O220   1.264       .  A
C211        O216   1.266       .  A
C211        C910   1.483       .  S
O212        C218   1.270       .  A
O212       Cd215   2.517       .  S
C213        O221   1.271       .  A
C213        C868   1.471       .  S
C214        O219   1.261       .  A
C214        O217   1.267       .  A
C214        C924   1.486       .  S
Cd215       O222   2.410       .  S
Cd215       O221   2.451       .  S
Cd215       O220   2.413       .  S
Cd215       O216   2.456       .  S
Cd215       O219   2.416   1_545  S
Cd215       O217   2.516   1_545  S
C218        O222   1.261       .  A
C218        C851   1.490       .  S
O223        C226   1.266       .  A
O223       Cd228   2.356       .  S
C224        O233   1.265       .  A
C224        O229   1.264   1_556  A
C224        C840   1.469       .  S
O225        C231   1.273       .  A
O225       Cd228   2.534   1_566  S
C226        O234   1.273       .  A
C226        C896   1.473       .  S
C227        O232   1.276       .  A
C227        O230   1.260   1_556  A
C227        C823   1.490       .  S
Cd228       O235   2.422   1_545  S
Cd228       O234   2.468       .  S
Cd228       O233   2.421   1_554  S
Cd228       O229   2.419       .  S
Cd228       O232   2.539   1_554  S
Cd228       O230   2.393       .  S
C231        O235   1.262   1_556  A
C231       C1232   1.505       .  S
O236        C239   1.266       .  A
O236       Cd241   2.397       .  S
C237        O246   1.266   1_556  A
C237        O242   1.269       .  A
C237        C837   1.475       .  S
O238        C244   1.273   1_556  A
O238       Cd241   2.526   1_565  S
C239        O247   1.269       .  A
C239        C865   1.476       .  S
C240        O245   1.273   1_556  A
C240        O243   1.261       .  A
C240        C809   1.491       .  S
Cd241       O248   2.428   1_545  S
Cd241       O247   2.466       .  S
Cd241       O246   2.398   1_556  S
Cd241       O242   2.429       .  S
Cd241       O245   2.509   1_556  S
Cd241       O243   2.401       .  S
C244        O248   1.260   1_554  A
C244       C1064   1.494       .  S
C249        C250   1.539       .  S
C249        C255   1.535       .  S
C249        C253   1.558       .  S
C249        C798   1.572       .  S
C250        H257   1.086       .  S
C250        C251   1.357       .  D
C251        C252   1.547       .  S
C251        C784   1.497       .  S
C252        C256   1.549       .  S
C252        C254   1.551       .  S
C252        H258   1.106       .  S
C253        H259   1.078       .  S
C253        C254   1.381       .  D
C254        C882   1.523       .  S
C255        H260   1.087       .  S
C255        C256   1.368       .  D
C256        C767   1.516       .  S
C261        C262   1.550       .  S
C261        C267   1.540       .  S
C261        C265   1.537       .  S
C261        C795   1.569       .  S
C262        H269   1.081       .  S
C262        C263   1.382       .  D
C263        C264   1.561       .  S
C263        C753   1.545       .  S
C264        C268   1.539       .  S
C264        C266   1.553       .  S
C264        H270   1.100       .  S
C265        H271   1.081       .  S
C265        C266   1.359       .  D
C266        C725   1.492       .  S
C267        H272   1.086       .  S
C267        C268   1.368       .  D
C268        C739   1.509       .  S
C273        C274   1.533       .  S
C273        C279   1.551       .  S
C273        C277   1.542       .  S
C273        C711   1.565       .  S
C274        H281   1.086       .  S
C274        C275   1.358       .  D
C275        C276   1.554       .  S
C275        C697   1.492       .  S
C276        C280   1.537       .  S
C276        C278   1.549       .  S
C276        H282   1.103       .  S
C277        H283   1.084       .  S
C277        C278   1.375       .  D
C278       C1397   1.524       .  S
C279        H284   1.079       .  S
C279        C280   1.368       .  D
C280        C686   1.508       .  S
C285        C286   1.538       .  S
C285        C291   1.544       .  S
C285        C289   1.537       .  S
C285        C714   1.568       .  S
C286        H293   1.085       .  S
C286        C287   1.371       .  D
C287        C288   1.552       .  S
C287        C781   1.525       .  S
C288        C292   1.546       .  S
C288        C290   1.545       .  S
C288        H294   1.106       .  S
C289        H295   1.086       .  S
C289        C290   1.359       .  D
C290        C854   1.490       .  S
C291        H296   1.075       .  S
C291        C292   1.369       .  D
C292        C669   1.500       .  S
C297        C298   1.534       .  S
C297        C303   1.530       .  S
C297        C301   1.551       .  S
C297        C655   1.563       .  S
C298        H305   1.084       .  S
C298        C299   1.371       .  D
C299        C300   1.556       .  S
C299        C700   1.529       .  S
C300        C304   1.557       .  S
C300        C302   1.534       .  S
C300        H306   1.100       .  S
C301        H307   1.079       .  S
C301        C302   1.368       .  D
C302       C1369   1.503       .  S
C303        H308   1.086       .  S
C303        C304   1.361       .  D
C304        C641   1.493       .  S
C309        C310   1.538       .  S
C309        C315   1.542       .  S
C309        C313   1.530       .  S
C309        C658   1.556       .  S
C310        H317   1.082       .  S
C310        C311   1.365       .  D
C311        C312   1.552       .  S
C311        C756   1.513       .  S
C312        C316   1.547       .  S
C312        C314   1.553       .  S
C312        H318   1.109       .  S
C313        H319   1.086       .  S
C313        C314   1.371       .  D
C314        C613   1.507       .  S
C315        H320   1.085       .  S
C315        C316   1.365       .  D
C316        C627   1.496       .  S
C321        C322   1.531       .  S
C321        C327   1.541       .  S
C321        C325   1.539       .  S
C321        C602   1.560       .  S
C322        H329   1.086       .  S
C322        C323   1.373       .  D
C323        C324   1.553       .  S
C323       C1316   1.512       .  S
C324        C328   1.544       .  S
C324        C326   1.550       .  S
C324        H330   1.108       .  S
C325        H331   1.084       .  S
C325        C326   1.368       .  D
C326        C585   1.512       .  S
C327        H332   1.084       .  S
C327        C328   1.364       .  D
C328        C683   1.494       .  S
C333        C334   1.543       .  S
C333        C339   1.537   1_554  S
C333        C337   1.538       .  S
C333        C599   1.564   1_554  S
C334        H341   1.079       .  S
C334        C335   1.370       .  D
C335        C336   1.546       .  S
C335        C672   1.499       .  S
C336        C340   1.555       .  S
C336        C338   1.543       .  S
C336        H342   1.107       .  S
C337        H343   1.086   1_554  S
C337        C338   1.359       .  D
C338        C812   1.492       .  S
C339        H344   1.085       .  S
C339        C340   1.371   1_556  D
C340        C571   1.525   1_554  S
C345        C346   1.545       .  S
C345        C351   1.541       .  S
C345        C349   1.540       .  S
C345        C557   1.569       .  S
C346        H353   1.081       .  S
C346        C347   1.372       .  D
C347        C348   1.553       .  S
C347        C770   1.511       .  S
C348        C352   1.551       .  S
C348        C350   1.553       .  S
C348        H354   1.108       .  S
C349        H355   1.084       .  S
C349        C350   1.372       .  D
C350        C826   1.521       .  S
C351        H356   1.086       .  S
C351        C352   1.359       .  D
C352        C574   1.502       .  S
C357        C358   1.545       .  S
C357        C363   1.536   1_554  S
C357        C361   1.548       .  S
C357        C560   1.572   1_554  S
C358        H365   1.082       .  S
C358        C359   1.366       .  D
C359        C360   1.542       .  S
C359        C742   1.500       .  S
C360        C364   1.546       .  S
C360        C362   1.549       .  S
C360        H366   1.109       .  S
C361        H367   1.085   1_554  S
C361        C362   1.373       .  D
C362        C532   1.509       .  S
C363        H368   1.086       .  S
C363        C364   1.365   1_556  D
C364        C546   1.503   1_554  S
C369        C370   1.546   1_556  S
C369        C375   1.527       .  S
C369        C373   1.529       .  S
C369        C515   1.557       .  S
C370        H377   1.086       .  S
C370        C371   1.363       .  D
C371        C372   1.535       .  S
C371        C644   1.493       .  S
C372        C376   1.561       .  S
C372        C374   1.576       .  S
C372        H378   1.096       .  S
C373        H379   1.073       .  S
C373        C374   1.383   1_556  D
C374       C1302   1.551       .  S
C375        H380   1.077       .  S
C375        C376   1.358   1_556  D
C376        C588   1.522   1_554  S
C381        C382   1.533       .  S
C381        C387   1.540       .  S
C381        C385   1.551       .  S
C381        C518   1.565       .  S
C382        H389   1.087       .  S
C382        C383   1.356       .  D
C383        C384   1.554       .  S
C383        C630   1.494       .  S
C384        C388   1.552       .  S
C384        C386   1.542       .  S
C384        H390   1.103       .  S
C385        H391   1.078       .  S
C385        C386   1.373       .  D
C386        C501   1.511       .  S
C387        H392   1.086       .  S
C387        C388   1.372       .  D
C388        C543   1.523       .  S
O393        C396   1.265       .  A
O393       Cd398   2.355       .  S
C394        O403   1.265       .  A
C394        O399   1.266       .  A
C394        C490   1.474       .  S
O395        C401   1.273       .  A
O395       Cd398   2.527       .  S
C396        O404   1.272       .  A
C396        C476   1.467       .  S
C397        O402   1.277       .  A
C397        O400   1.262       .  A
C397        C963   1.500       .  S
Cd398       O405   2.406       .  S
Cd398       O404   2.480       .  S
Cd398       O403   2.395       .  S
Cd398       O399   2.431       .  S
Cd398       O402   2.545       .  S
Cd398       O400   2.382       .  S
C401        O405   1.261       .  A
C401        C728   1.497       .  S
O406        C409   1.265       .  A
O406       Cd411   2.367       .  S
C407        O416   1.266       .  A
C407        O412   1.269       .  A
C407        C487   1.471       .  S
O408        C414   1.278       .  A
O408       Cd411   2.511       .  S
C409        O417   1.272       .  A
C409        C459   1.473       .  S
C410        O415   1.276       .  A
C410        O413   1.262       .  A
C410        C938   1.490       .  S
Cd411       O418   2.378       .  S
Cd411       O417   2.481       .  S
Cd411       O416   2.401       .  S
Cd411       O412   2.413       .  S
Cd411       O415   2.528       .  S
Cd411       O413   2.369       .  S
C414        O418   1.263       .  A
C414        C616   1.494       .  S
O419        C422   1.265       .  A
O419       Cd424   2.394       .  S
C420        O429   1.266       .  A
C420        O425   1.271       .  A
C420        C445   1.481       .  S
O421        C427   1.277       .  A
O421       Cd424   2.525       .  S
C422        O430   1.270       .  A
C422        C473   1.473       .  S
C423        O428   1.276       .  A
C423        O426   1.263       .  A
C423        C529   1.498       .  S
Cd424       O431   2.410       .  S
Cd424       O430   2.491       .  S
Cd424       O429   2.402       .  S
Cd424       O425   2.438       .  S
Cd424       O428   2.536       .  S
Cd424       O426   2.405       .  S
C427        O431   1.264       .  A
C427       C1131   1.492       .  S
O432        C435   1.267       .  A
O432       Cd437   2.389   1_554  S
C433        O442   1.264       .  A
C433        O438   1.268   1_556  A
C433        C448   1.480       .  S
O434        C440   1.273       .  A
O434       Cd437   2.545       .  S
C435        O443   1.272       .  A
C435        C462   1.478       .  S
C436        O441   1.277       .  A
C436        O439   1.263   1_556  A
C436        C504   1.490       .  S
Cd437       O444   2.385   1_556  S
Cd437       O443   2.502   1_556  S
Cd437       O442   2.425       .  S
Cd437       O438   2.431   1_556  S
Cd437       O441   2.519       .  S
Cd437       O439   2.387   1_556  S
C440        O444   1.260   1_556  A
C440       C1092   1.496       .  S
C445        C446   1.416       .  A
C445        C450   1.414       .  A
C446        C447   1.406       .  A
C446        C451   1.453   1_556  S
C447        C448   1.413       .  A
C447        C454   1.453   1_556  S
C448        C449   1.415       .  A
C449        C450   1.409       .  A
C449        C452   1.452       .  S
C450        C453   1.452       .  S
C451        N458   1.158       .  T
C452        N457   1.158       .  T
C453        N455   1.157       .  T
C454        N456   1.157       .  T
C459        C460   1.410       .  A
C459        C464   1.411       .  A
C460        C461   1.404       .  A
C460        C465   1.453       .  S
C461        C462   1.412       .  A
C461        C468   1.452       .  S
C462        C463   1.412       .  A
C463        C464   1.414       .  A
C463        C466   1.448       .  S
C464        C467   1.451       .  S
C465        N472   1.157       .  T
C466        N471   1.157       .  T
C467        N469   1.157       .  T
C468        N470   1.157       .  T
C473        C474   1.410       .  A
C473        C478   1.410       .  A
C474        C475   1.407       .  A
C474        C479   1.451       .  S
C475        C476   1.409       .  A
C475        C482   1.452       .  S
C476        C477   1.409       .  A
C477        C478   1.410       .  A
C477        C480   1.451       .  S
C478        C481   1.450       .  S
C479        N486   1.157       .  T
C480        N485   1.157       .  T
C481        N483   1.157       .  T
C482        N484   1.157       .  T
C487        C488   1.413       .  A
C487        C492   1.412       .  A
C488        C489   1.406       .  A
C488        C493   1.453       .  S
C489        C490   1.414       .  A
C489        C496   1.452       .  S
C490        C491   1.413       .  A
C491        C492   1.404       .  A
C491        C494   1.453       .  S
C492        C495   1.453       .  S
C493        N500   1.158       .  T
C494        N499   1.158       .  T
C495        N497   1.157       .  T
C496        N498   1.157       .  T
C501        C502   1.422       .  A
C501        C506   1.418       .  A
C502        C503   1.419       .  A
C502        C507   1.446       .  S
C503        C504   1.411       .  A
C503        C510   1.452       .  S
C504        C505   1.411       .  A
C505        C506   1.411       .  A
C505        C508   1.452   1_556  S
C506        C509   1.449   1_556  S
C507        N514   1.156       .  T
C508        N513   1.157       .  T
C509        N511   1.156       .  T
C510        N512   1.157       .  T
C515        C516   1.417       .  A
C515        C520   1.409       .  A
C516        C517   1.425       .  A
C516        C521   1.453   1_556  S
C517        C518   1.433       .  A
C517        C524   1.446   1_556  S
C518        C519   1.426       .  A
C519        C520   1.401       .  A
C519        C522   1.452       .  S
C520        C523   1.451       .  S
C521        N528   1.157       .  T
C522        N527   1.157       .  T
C523        N525   1.157       .  T
C524        N526   1.157       .  T
C529        C530   1.418       .  A
C529        C534   1.412   1_556  A
C530        C531   1.410       .  A
C530        C535   1.454       .  S
C531        C532   1.413   1_556  A
C531        C538   1.448       .  S
C532        C533   1.421       .  A
C533        C534   1.420       .  A
C533        C536   1.451       .  S
C534        C537   1.449       .  S
C535        N542   1.157       .  T
C536        N541   1.157       .  T
C537        N539   1.157       .  T
C538        N540   1.157       .  T
C543        C544   1.427   1_556  A
C543        C548   1.421       .  A
C544        C545   1.418       .  A
C544        C549   1.450       .  S
C545        C546   1.408   1_554  A
C545        C552   1.449       .  S
C546        C547   1.412       .  A
C547        C548   1.416       .  A
C547        C550   1.450       .  S
C548        C551   1.447       .  S
C549        N556   1.157       .  T
C550        N555   1.156       .  T
C551        N553   1.158       .  T
C552        N554   1.157       .  T
C557        C558   1.423       .  A
C557        C562   1.423       .  A
C558        C559   1.416   1_556  A
C558        C563   1.454   1_556  S
C559        C560   1.427   1_554  A
C559        C566   1.449       .  S
C560        C561   1.426       .  A
C561        C562   1.422       .  A
C561        C564   1.451       .  S
C562        C565   1.448       .  S
C563        N570   1.157       .  T
C564        N569   1.157       .  T
C565        N567   1.157       .  T
C566        N568   1.157       .  T
C571        C572   1.426       .  A
C571        C576   1.423   1_556  A
C572        C573   1.415       .  A
C572        C577   1.450       .  S
C573        C574   1.408       .  A
C573        C580   1.451       .  S
C574        C575   1.411       .  A
C575        C576   1.420   1_556  A
C575        C578   1.449   1_556  S
C576        C579   1.449       .  S
C577        N584   1.157       .  T
C578        N583   1.156       .  T
C579        N581   1.157       .  T
C580        N582   1.157       .  T
C585        C586   1.416       .  A
C585        C590   1.415       .  A
C586        C587   1.425       .  A
C586        C591   1.449       .  S
C587        C588   1.419       .  A
C587        C594   1.447       .  S
C588        C589   1.425       .  A
C589        C590   1.408       .  A
C589        C592   1.454       .  S
C590        C593   1.454       .  S
C591        N598   1.157       .  T
C592        N597   1.158   1_556  T
C593        N595   1.158       .  T
C594        N596   1.157       .  T
C599        C600   1.430       .  A
C599        C604   1.427   1_556  A
C600        C601   1.414       .  A
C600        C605   1.455       .  S
C601        C602   1.417       .  A
C601        C608   1.451       .  S
C602        C603   1.419   1_556  A
C603        C604   1.416       .  A
C603        C606   1.453       .  S
C604        C607   1.448       .  S
C605        N612   1.158       .  T
C606        N611   1.157       .  T
C607        N609   1.158       .  T
C608        N610   1.157       .  T
C613        C614   1.417       .  A
C613        C618   1.417       .  A
C614        C615   1.411       .  A
C614        C619   1.452       .  S
C615        C616   1.416       .  A
C615        C622   1.454       .  S
C616        C617   1.413       .  A
C617        C618   1.417       .  A
C617        C620   1.452       .  S
C618        C621   1.446       .  S
C619        N626   1.157       .  T
C620        N625   1.157       .  T
C621        N623   1.156       .  T
C622        N624   1.158       .  T
C627        C628   1.412       .  A
C627        C632   1.415       .  A
C628        C629   1.415       .  A
C628        C633   1.447       .  S
C629        C630   1.412       .  A
C629        C636   1.450       .  S
C630        C631   1.413       .  A
C631        C632   1.411       .  A
C631        C634   1.453       .  S
C632        C635   1.451       .  S
C633        N640   1.156       .  T
C634        N639   1.157       .  T
C635        N637   1.157       .  T
C636        N638   1.158       .  T
C641        C642   1.414       .  A
C641        C646   1.414       .  A
C642        C643   1.415       .  A
C642        C647   1.449       .  S
C643        C644   1.410       .  A
C643        C650   1.449       .  S
C644        C645   1.414       .  A
C645        C646   1.411       .  A
C645        C648   1.450       .  S
C646        C649   1.453       .  S
C647        N654   1.157       .  T
C648        N653   1.157       .  T
C649        N651   1.157       .  T
C650        N652   1.157       .  T
C655        C656   1.432       .  A
C655        C660   1.430       .  A
C656        C657   1.416       .  A
C656        C661   1.448       .  S
C657        C658   1.413       .  A
C657        C664   1.452       .  S
C658        C659   1.415       .  A
C659        C660   1.411       .  A
C659        C662   1.452       .  S
C660        C663   1.454       .  S
C661        N668   1.158       .  T
C662        N667   1.157       .  T
C663        N665   1.158       .  T
C664        N666   1.157       .  T
C669        C670   1.413       .  A
C669        C674   1.415       .  A
C670        C671   1.419       .  A
C670        C675   1.447       .  S
C671        C672   1.414       .  A
C671        C678   1.447       .  S
C672        C673   1.413       .  A
C673        C674   1.408       .  A
C673        C676   1.452       .  S
C674        C677   1.452       .  S
C675        N682   1.157       .  T
C676        N681   1.157       .  T
C677        N679   1.157       .  T
C678        N680   1.157       .  T
C683        C684   1.408       .  A
C683        C688   1.410       .  A
C684        C685   1.420       .  A
C684        C689   1.450       .  S
C685        C686   1.420       .  A
C685        C692   1.445       .  S
C686        C687   1.416       .  A
C687        C688   1.408       .  A
C687        C690   1.448       .  S
C688        C691   1.453       .  S
C689        N696   1.157       .  T
C690        N695   1.156       .  T
C691        N693   1.157       .  T
C692        N694   1.157       .  T
C697        C698   1.401       .  A
C697        C702   1.410       .  A
C698        C699   1.411       .  A
C698        C703   1.452       .  S
C699        C700   1.435       .  A
C699        C706   1.451       .  S
C700        C701   1.427       .  A
C701        C702   1.417       .  A
C701        C704   1.448       .  S
C702        C705   1.453       .  S
C703        N710   1.158       .  T
C704        N709   1.158       .  T
C705        N707   1.157       .  T
C706        N708   1.158       .  T
C711        C712   1.420       .  A
C711        C716   1.423       .  A
C712        C713   1.418       .  A
C712        C717   1.450       .  S
C713        C714   1.432       .  A
C713        C720   1.456       .  S
C714        C715   1.427       .  A
C715        C716   1.418       .  A
C715        C718   1.449       .  S
C716        C719   1.453       .  S
C717        N724   1.158       .  T
C718        N723   1.158       .  T
C719        N721   1.156       .  T
C720        N722   1.158       .  T
C725        C726   1.407       .  A
C725        C730   1.414       .  A
C726        C727   1.410       .  A
C726        C731   1.453       .  S
C727        C728   1.423       .  A
C727        C734   1.453       .  S
C728        C729   1.414       .  A
C729        C730   1.417       .  A
C729        C732   1.449       .  S
C730        C733   1.451       .  S
C731        N738   1.158       .  T
C732        N737   1.157       .  T
C733        N735   1.157       .  T
C734        N736   1.158       .  T
C739        C740   1.412       .  A
C739        C744   1.417       .  A
C740        C741   1.411       .  A
C740        C745   1.447       .  S
C741        C742   1.413       .  A
C741        C748   1.451       .  S
C742        C743   1.412       .  A
C743        C744   1.418       .  A
C743        C746   1.448       .  S
C744        C747   1.446       .  S
C745        N752   1.156       .  T
C746        N751   1.157       .  T
C747        N749   1.157       .  T
C748        N750   1.157       .  T
C753        C754   1.434       .  A
C753        C758   1.435       .  A
C754        C755   1.416       .  A
C754        C759   1.448       .  S
C755        C756   1.413       .  A
C755        C762   1.458       .  S
C756        C757   1.409       .  A
C757        C758   1.425       .  A
C757        C760   1.451       .  S
C758        C761   1.448       .  S
C759        N766   1.157       .  T
C760        N765   1.157       .  T
C761        N763   1.158       .  T
C762        N764   1.158       .  T
C767        C768   1.420       .  A
C767        C772   1.420       .  A
C768        C769   1.412       .  A
C768        C773   1.453       .  S
C769        C770   1.416       .  A
C769        C776   1.452       .  S
C770        C771   1.415       .  A
C771        C772   1.423       .  A
C771        C774   1.447       .  S
C772        C775   1.448       .  S
C773        N780   1.157       .  T
C774        N779   1.157       .  T
C775        N777   1.158       .  T
C776        N778   1.157       .  T
C781        C782   1.426       .  A
C781        C786   1.426       .  A
C782        C783   1.420       .  A
C782        C787   1.448       .  S
C783        C784   1.410       .  A
C783        C790   1.450       .  S
C784        C785   1.406       .  A
C785        C786   1.410       .  A
C785        C788   1.452       .  S
C786        C789   1.450       .  S
C787        N794   1.157       .  T
C788        N793   1.158       .  T
C789        N791   1.157       .  T
C790        N792   1.157       .  T
C795        C796   1.425       .  A
C795        C800   1.413       .  A
C796        C797   1.427       .  A
C796        C801   1.450       .  S
C797        C798   1.428       .  A
C797        C804   1.448       .  S
C798        C799   1.426       .  A
C799        C800   1.408       .  A
C799        C802   1.453       .  S
C800        C803   1.446       .  S
C801        N808   1.158       .  T
C802        N807   1.157       .  T
C803        N805   1.155       .  T
C804        N806   1.158       .  T
C809        C810   1.411   1_556  A
C809        C814   1.422       .  A
C810        C811   1.414       .  A
C810        C815   1.450       .  S
C811        C812   1.418       .  A
C811        C818   1.451       .  S
C812        C813   1.408   1_554  A
C813        C814   1.408       .  A
C813        C816   1.452       .  S
C814        C817   1.454       .  S
C815        N822   1.157       .  T
C816        N821   1.157       .  T
C817        N819   1.158       .  T
C818        N820   1.157       .  T
C823        C824   1.411       .  A
C823        C828   1.405       .  A
C824        C825   1.416       .  A
C824        C829   1.452   1_556  S
C825        C826   1.424       .  A
C825        C832   1.449   1_556  S
C826        C827   1.421       .  A
C827        C828   1.416       .  A
C827        C830   1.440       .  S
C828        C831   1.452       .  S
C829        N836   1.157       .  T
C830        N835   1.154       .  T
C831        N833   1.157       .  T
C832        N834   1.157       .  T
C837        C838   1.414       .  A
C837        C842   1.416       .  A
C838        C839   1.406       .  A
C838        C843   1.452   1_545  S
C839        C840   1.411       .  A
C839        C846   1.453   1_545  S
C840        C841   1.410   1_556  A
C841        C842   1.405   1_554  A
C841        C844   1.453       .  S
C842        C845   1.453   1_556  S
C843        N850   1.157       .  T
C844        N849   1.157       .  T
C845        N847   1.157       .  T
C846        N848   1.157       .  T
C851        C852   1.411       .  A
C851        C856   1.420       .  A
C852        C853   1.417       .  A
C852        C857   1.449       .  S
C853        C854   1.417       .  A
C853        C860   1.450       .  S
C854        C855   1.406       .  A
C855        C856   1.407       .  A
C855        C858   1.451       .  S
C856        C859   1.453       .  S
C857        N864   1.157       .  T
C858        N863   1.157       .  T
C859        N861   1.157       .  T
C860        N862   1.157       .  T
C865        C866   1.411   1_545  A
C865        C870   1.415       .  A
C866        C867   1.404       .  A
C866        C871   1.452       .  S
C867        C868   1.409   1_565  A
C867        C874   1.452       .  S
C868        C869   1.410       .  A
C869        C870   1.411       .  A
C869        C872   1.451       .  S
C870        C873   1.451       .  S
C871        N878   1.157       .  T
C872        N877   1.157       .  T
C873        N875   1.157       .  T
C874        N876   1.157       .  T
C879        C880   1.414       .  A
C879        C884   1.404       .  A
C880        C881   1.420       .  A
C880        C885   1.451       .  S
C881        C882   1.425       .  A
C881        C888   1.450       .  S
C882        C883   1.422       .  A
C883        C884   1.413       .  A
C883        C886   1.439       .  S
C884        C887   1.454       .  S
C885        N892   1.157       .  T
C886        N891   1.153       .  T
C887        N889   1.157       .  T
C888        N890   1.158       .  T
C893        C894   1.413       .  A
C893        C898   1.412       .  A
C894        C895   1.403       .  A
C894        C899   1.453       .  S
C895        C896   1.411       .  A
C895        C902   1.453       .  S
C896        C897   1.411       .  A
C897        C898   1.411       .  A
C897        C900   1.450   1_545  S
C898        C901   1.450   1_545  S
C899        N906   1.158       .  T
C900        N905   1.157       .  T
C901        N903   1.157       .  T
C902        N904   1.157       .  T
C907        C908   1.414       .  A
C907        C912   1.414       .  A
C908        C909   1.406       .  A
C908        C913   1.454   1_545  S
C909        C910   1.416       .  A
C909        C916   1.453   1_545  S
C910        C911   1.415       .  A
C911        C912   1.408       .  A
C911        C914   1.452       .  S
C912        C915   1.453       .  S
C913        N920   1.158       .  T
C914        N919   1.157       .  T
C915        N917   1.158       .  T
C916        N918   1.157       .  T
C921        C922   1.423       .  A
C921        C926   1.412       .  A
C922        C923   1.420       .  A
C922        C927   1.449       .  S
C923        C924   1.407       .  A
C923        C930   1.449       .  S
C924        C925   1.413       .  A
C925        C926   1.406       .  A
C925        C928   1.455       .  S
C926        C929   1.447       .  S
C927        N934   1.157       .  T
C928        N933   1.157       .  T
C929        N931   1.156       .  T
C930        N932   1.157       .  T
C935        C936   1.415       .  A
C935        C940   1.422       .  A
C936        C937   1.408       .  A
C936        C941   1.445       .  S
C937        C938   1.414       .  A
C937        C944   1.457       .  S
C938        C939   1.408       .  A
C939        C940   1.420       .  A
C939        C942   1.449       .  S
C940        C943   1.448       .  S
C941        N948   1.155       .  T
C942        N947   1.157       .  T
C943        N945   1.157       .  T
C944        N946   1.157       .  T
C949        C950   1.426       .  A
C949        C954   1.421       .  A
C950        C951   1.424       .  A
C950        C955   1.447       .  S
C951        C952   1.421       .  A
C951        C958   1.448       .  S
C952        C953   1.421       .  A
C953        C954   1.402       .  A
C953        C956   1.454       .  S
C954        C957   1.453       .  S
C955        N962   1.157       .  T
C956        N961   1.157       .  T
C957        N959   1.157       .  T
C958        N960   1.157       .  T
C963        C964   1.412       .  A
C963        C968   1.416       .  A
C964        C965   1.421       .  A
C964        C969   1.449       .  S
C965        C966   1.424       .  A
C965        C972   1.450       .  S
C966        C967   1.414       .  A
C967        C968   1.409       .  A
C967        C970   1.447       .  S
C968        C971   1.454       .  S
C969        N976   1.157       .  T
C970        N975   1.155       .  T
C971        N973   1.157       .  T
C972        N974   1.157       .  T
C977        C978   1.421       .  A
C977        C982   1.410       .  A
C978        C979   1.417       .  A
C978        C983   1.453       .  S
C979        C980   1.415       .  A
C979        C986   1.449       .  S
C980        C981   1.423       .  A
C981        C982   1.418       .  A
C981        C984   1.449       .  S
C982        C985   1.450       .  S
C983        N990   1.157       .  T
C984        N989   1.156       .  T
C985        N987   1.157       .  T
C986        N988   1.157       .  T
C991        C992   1.420       .  A
C991        C996   1.420       .  A
C992        C993   1.421       .  A
C992        C997   1.449       .  S
C993        C994   1.427       .  A
C993       C1000   1.451       .  S
C994        C995   1.431       .  A
C995        C996   1.415       .  A
C995        C998   1.450       .  S
C996        C999   1.455       .  S
C997       N1004   1.157       .  T
C998       N1003   1.157       .  T
C999       N1001   1.157       .  T
C1000      N1002   1.157       .  T
C1005      C1006   1.422       .  A
C1005      C1010   1.418       .  A
C1006      C1007   1.427       .  A
C1006      C1011   1.446       .  S
C1007      C1008   1.419       .  A
C1007      C1014   1.448       .  S
C1008      C1009   1.414       .  A
C1009      C1010   1.402       .  A
C1009      C1012   1.453       .  S
C1010      C1013   1.452       .  S
C1011      N1018   1.157       .  T
C1012      N1017   1.157       .  T
C1013      N1015   1.157       .  T
C1014      N1016   1.157       .  T
C1019      C1020   1.417       .  A
C1019      C1024   1.424       .  A
C1020      C1021   1.410       .  A
C1020      C1025   1.450       .  S
C1021      C1022   1.414       .  A
C1021      C1028   1.452       .  S
C1022      C1023   1.408       .  A
C1023      C1024   1.421       .  A
C1023      C1026   1.449       .  S
C1024      C1027   1.448       .  S
C1025      N1032   1.157       .  T
C1026      N1031   1.157       .  T
C1027      N1029   1.157       .  T
C1028      N1030   1.156       .  T
C1033      C1034   1.419       .  A
C1033      C1038   1.425       .  A
C1034      C1035   1.418       .  A
C1034      C1039   1.449       .  S
C1035      C1036   1.416       .  A
C1035      C1042   1.452       .  S
C1036      C1037   1.405       .  A
C1037      C1038   1.408       .  A
C1037      C1040   1.450       .  S
C1038      C1041   1.452       .  S
C1039      N1046   1.158       .  T
C1040      N1045   1.157       .  T
C1041      N1043   1.157       .  T
C1042      N1044   1.157       .  T
C1047      C1048   1.422       .  A
C1047      C1052   1.426       .  A
C1048      C1049   1.420       .  A
C1048      C1053   1.449       .  S
C1049      C1050   1.426       .  A
C1049      C1056   1.452       .  S
C1050      C1051   1.422       .  A
C1051      C1052   1.412       .  A
C1051      C1054   1.452       .  S
C1052      C1055   1.452       .  S
C1053      N1060   1.157       .  T
C1054      N1059   1.158       .  T
C1055      N1057   1.157       .  T
C1056      N1058   1.157       .  T
C1061      C1062   1.440       .  A
C1061      C1066   1.440       .  A
C1062      C1063   1.420       .  A
C1062      C1067   1.448       .  S
C1063      C1064   1.405       .  A
C1063      C1070   1.455       .  S
C1064      C1065   1.403   1_554  A
C1065      C1066   1.419   1_556  A
C1065      C1068   1.455       .  S
C1066      C1069   1.447   1_554  S
C1067      N1074   1.158       .  T
C1068      N1073   1.157       .  T
C1069      N1071   1.157       .  T
C1070      N1072   1.157       .  T
C1075      C1076   1.414       .  A
C1075      C1080   1.411       .  A
C1076      C1077   1.415       .  A
C1076      C1081   1.451       .  S
C1077      C1078   1.415       .  A
C1077      C1084   1.449       .  S
C1078      C1079   1.407       .  A
C1079      C1080   1.407       .  A
C1079      C1082   1.445       .  S
C1080      C1083   1.450       .  S
C1081      N1088   1.157       .  T
C1082      N1087   1.156       .  T
C1083      N1085   1.157       .  T
C1084      N1086   1.157       .  T
C1089      C1090   1.416       .  A
C1089      C1094   1.408       .  A
C1090      C1091   1.419       .  A
C1090      C1095   1.450       .  S
C1091      C1092   1.413       .  A
C1091      C1098   1.449       .  S
C1092      C1093   1.421       .  A
C1093      C1094   1.407       .  A
C1093      C1096   1.454   1_556  S
C1094      C1097   1.451   1_556  S
C1095      N1102   1.157       .  T
C1096      N1101   1.158       .  T
C1097      N1099   1.157       .  T
C1098      N1100   1.157       .  T
C1103      C1104   1.417       .  A
C1103      C1108   1.419       .  A
C1104      C1105   1.416       .  A
C1104      C1109   1.451       .  S
C1105      C1106   1.417       .  A
C1105      C1112   1.450       .  S
C1106      C1107   1.414       .  A
C1107      C1108   1.417       .  A
C1107      C1110   1.448       .  S
C1108      C1111   1.448       .  S
C1109      N1116   1.157       .  T
C1110      N1115   1.157       .  T
C1111      N1113   1.157       .  T
C1112      N1114   1.157       .  T
C1117      C1118   1.422       .  A
C1117      C1122   1.424   1_556  A
C1118      C1119   1.419       .  A
C1118      C1123   1.450       .  S
C1119      C1120   1.422   1_556  A
C1119      C1126   1.449       .  S
C1120      C1121   1.424       .  A
C1121      C1122   1.421       .  A
C1121      C1124   1.449       .  S
C1122      C1125   1.453       .  S
C1123      N1130   1.158       .  T
C1124      N1129   1.158       .  T
C1125      N1127   1.158       .  T
C1126      N1128   1.157       .  T
C1131      C1132   1.405       .  A
C1131      C1136   1.411       .  A
C1132      C1133   1.418   1_556  A
C1132      C1137   1.450       .  S
C1133      C1134   1.429       .  A
C1133      C1140   1.448       .  S
C1134      C1135   1.427       .  A
C1135      C1136   1.415   1_554  A
C1135      C1138   1.448       .  S
C1136      C1139   1.454       .  S
C1137      N1144   1.157       .  T
C1138      N1143   1.158       .  T
C1139      N1141   1.157       .  T
C1140      N1142   1.156       .  T
C1145      C1146   1.416       .  A
C1145      C1150   1.418       .  A
C1146      C1147   1.411       .  A
C1146      C1151   1.448       .  S
C1147      C1148   1.412       .  A
C1147      C1154   1.452       .  S
C1148      C1149   1.409       .  A
C1149      C1150   1.417       .  A
C1149      C1152   1.448       .  S
C1150      C1153   1.447       .  S
C1151      N1158   1.156       .  T
C1152      N1157   1.156       .  T
C1153      N1155   1.156       .  T
C1154      N1156   1.157       .  T
C1159      C1160   1.406       .  A
C1159      C1164   1.412       .  A
C1160      C1161   1.413       .  A
C1160      C1165   1.451       .  S
C1161      C1162   1.429       .  A
C1161      C1168   1.447       .  S
C1162      C1163   1.430       .  A
C1163      C1164   1.413       .  A
C1163      C1166   1.454       .  S
C1164      C1167   1.450   1_556  S
C1165      N1172   1.158       .  T
C1166      N1171   1.158       .  T
C1167      N1169   1.156       .  T
C1168      N1170   1.158       .  T
C1173      C1174   1.425       .  A
C1173      C1178   1.421       .  A
C1174      C1175   1.408       .  A
C1174      C1179   1.450       .  S
C1175      C1176   1.409       .  A
C1175      C1182   1.453       .  S
C1176      C1177   1.411       .  A
C1177      C1178   1.421       .  A
C1177      C1180   1.449       .  S
C1178      C1181   1.444       .  S
C1179      N1186   1.156       .  T
C1180      N1185   1.157       .  T
C1181      N1183   1.158       .  T
C1182      N1184   1.157       .  T
C1187      C1188   1.414       .  A
C1187      C1192   1.418       .  A
C1188      C1189   1.405       .  A
C1188      C1193   1.452       .  S
C1189      C1190   1.428       .  A
C1189      C1196   1.454       .  S
C1190      C1191   1.431       .  A
C1191      C1192   1.423       .  A
C1191      C1194   1.446       .  S
C1192      C1195   1.451   1_556  S
C1193      N1200   1.157       .  T
C1194      N1199   1.158       .  T
C1195      N1197   1.157       .  T
C1196      N1198   1.158       .  T
C1201      C1202   1.416       .  A
C1201      C1206   1.416       .  A
C1202      C1203   1.423       .  A
C1202      C1207   1.445       .  S
C1203      C1204   1.415       .  A
C1203      C1210   1.449       .  S
C1204      C1205   1.412       .  A
C1205      C1206   1.411       .  A
C1205      C1208   1.450       .  S
C1206      C1209   1.451       .  S
C1207      N1214   1.157       .  T
C1208      N1213   1.157       .  T
C1209      N1211   1.157       .  T
C1210      N1212   1.157       .  T
C1215      C1216   1.408   1_556  A
C1215      C1220   1.416       .  A
C1216      C1217   1.414   1_554  A
C1216      C1221   1.449       .  S
C1217      C1218   1.425       .  A
C1217      C1224   1.450   1_556  S
C1218      C1219   1.409       .  A
C1219      C1220   1.417       .  A
C1219      C1222   1.446       .  S
C1220      C1223   1.446       .  S
C1221      N1228   1.158       .  T
C1222      N1227   1.158       .  T
C1223      N1225   1.157       .  T
C1224      N1226   1.157       .  T
C1229      C1230   1.428       .  A
C1229      C1234   1.421   1_556  A
C1230      C1231   1.420       .  A
C1230      C1235   1.450       .  S
C1231      C1232   1.411       .  A
C1231      C1238   1.450       .  S
C1232      C1233   1.420   1_556  A
C1233      C1234   1.415       .  A
C1233      C1236   1.454       .  S
C1234      C1237   1.448       .  S
C1235      N1242   1.157       .  T
C1236      N1241   1.158       .  T
C1237      N1239   1.157       .  T
C1238      N1240   1.157       .  T
C1243      C1244   1.408       .  A
C1243      C1248   1.408       .  A
C1244      C1245   1.414       .  A
C1244      C1249   1.454       .  S
C1245      C1246   1.429       .  A
C1245      C1252   1.451       .  S
C1246      C1247   1.428       .  A
C1247      C1248   1.419       .  A
C1247      C1250   1.447       .  S
C1248      C1251   1.453       .  S
C1249      N1256   1.157       .  T
C1250      N1255   1.158       .  T
C1251      N1253   1.157       .  T
C1252      N1254   1.157       .  T
C1257      C1258   1.426   1_554  A
C1257      C1262   1.423       .  A
C1258      C1259   1.424       .  A
C1258      C1263   1.447       .  S
C1259      C1260   1.413       .  A
C1259      C1266   1.448       .  S
C1260      C1261   1.410   1_556  A
C1261      C1262   1.416       .  A
C1261      C1264   1.449       .  S
C1262      C1265   1.447       .  S
C1263      N1270   1.156       .  T
C1264      N1269   1.156       .  T
C1265      N1267   1.156       .  T
C1266      N1268   1.157       .  T
C1271      C1272   1.416       .  A
C1271      C1276   1.425   1_556  A
C1272      C1273   1.418       .  A
C1272      C1277   1.450       .  S
C1273      C1274   1.428   1_556  A
C1273      C1280   1.450       .  S
C1274      C1275   1.426       .  A
C1275      C1276   1.423       .  A
C1275      C1278   1.450       .  S
C1276      C1279   1.453       .  S
C1277      N1284   1.157       .  T
C1278      N1283   1.157       .  T
C1279      N1281   1.158       .  T
C1280      N1282   1.156       .  T
C1285      C1286   1.413       .  A
C1285      C1290   1.410   1_556  A
C1286      C1287   1.415       .  A
C1286      C1291   1.452       .  S
C1287      C1288   1.424   1_556  A
C1287      C1294   1.452       .  S
C1288      C1289   1.424       .  A
C1289      C1290   1.419       .  A
C1289      C1292   1.446       .  S
C1290      C1293   1.452       .  S
C1291      N1298   1.157       .  T
C1292      N1297   1.157       .  T
C1293      N1295   1.157       .  T
C1294      N1296   1.157       .  T
C1299      C1300   1.401   1_554  A
C1299      C1304   1.406       .  A
C1300      C1301   1.417   1_556  A
C1300      C1305   1.452       .  S
C1301      C1302   1.438       .  A
C1301      C1308   1.448   1_554  S
C1302      C1303   1.430       .  A
C1303      C1304   1.418       .  A
C1303      C1306   1.447       .  S
C1304      C1307   1.452       .  S
C1305      N1312   1.157       .  T
C1306      N1311   1.158       .  T
C1307      N1309   1.157       .  T
C1308      N1310   1.158       .  T
C1313      C1314   1.412       .  A
C1313      C1318   1.414       .  A
C1314      C1315   1.417       .  A
C1314      C1319   1.452       .  S
C1315      C1316   1.421       .  A
C1315      C1322   1.447       .  S
C1316      C1317   1.420       .  A
C1317      C1318   1.412       .  A
C1317      C1320   1.452   1_556  S
C1318      C1321   1.453   1_556  S
C1319      N1326   1.157       .  T
C1320      N1325   1.157       .  T
C1321      N1323   1.157       .  T
C1322      N1324   1.157       .  T
C1327      C1328   1.417       .  A
C1327      C1332   1.406       .  A
C1328      C1329   1.412       .  A
C1328      C1333   1.452       .  S
C1329      C1330   1.414       .  A
C1329      C1336   1.451       .  S
C1330      C1331   1.426       .  A
C1331      C1332   1.417       .  A
C1331      C1334   1.447       .  S
C1332      C1335   1.451       .  S
C1333      N1340   1.156       .  T
C1334      N1339   1.156       .  T
C1335      N1337   1.157       .  T
C1336      N1338   1.157       .  T
C1341      C1342   1.411   1_455  A
C1341      C1346   1.409   1_556  A
C1342      C1343   1.407   1_655  A
C1342      C1347   1.453       .  S
C1343      C1344   1.417       .  A
C1343      C1350   1.452   1_455  S
C1344      C1345   1.416   1_556  A
C1345      C1346   1.401       .  A
C1345      C1348   1.452       .  S
C1346      C1349   1.454       .  S
C1347      N1354   1.158       .  T
C1348      N1353   1.157       .  T
C1349      N1351   1.157       .  T
C1350      N1352   1.158       .  T
C1355      C1356   1.419       .  A
C1355      C1360   1.422       .  A
C1356      C1357   1.409       .  A
C1356      C1361   1.454       .  S
C1357      C1358   1.416       .  A
C1357      C1364   1.450       .  S
C1358      C1359   1.417       .  A
C1359      C1360   1.424       .  A
C1359      C1362   1.449       .  S
C1360      C1363   1.450       .  S
C1361      N1368   1.157       .  T
C1362      N1367   1.157       .  T
C1363      N1365   1.157       .  T
C1364      N1366   1.156       .  T
C1369      C1370   1.413       .  A
C1369      C1374   1.416       .  A
C1370      C1371   1.412       .  A
C1370      C1375   1.452       .  S
C1371      C1372   1.419       .  A
C1371      C1378   1.451       .  S
C1372      C1373   1.414       .  A
C1373      C1374   1.416       .  A
C1373      C1376   1.452       .  S
C1374      C1377   1.447       .  S
C1375      N1382   1.157       .  T
C1376      N1381   1.157       .  T
C1377      N1379   1.157       .  T
C1378      N1380   1.157       .  T
C1383      C1384   1.408   1_455  A
C1383      C1388   1.410       .  A
C1384      C1385   1.404       .  A
C1384      C1389   1.448       .  S
C1385      C1386   1.408   1_655  A
C1385      C1392   1.452       .  S
C1386      C1387   1.409       .  A
C1387      C1388   1.411       .  A
C1387      C1390   1.448       .  S
C1388      C1391   1.449       .  S
C1389      N1396   1.156       .  T
C1390      N1395   1.157       .  T
C1391      N1393   1.157       .  T
C1392      N1394   1.157       .  T
C1397      C1398   1.430       .  A
C1397      C1402   1.425       .  A
C1398      C1399   1.417       .  A
C1398      C1403   1.450       .  S
C1399      C1400   1.408       .  A
C1399      C1406   1.452       .  S
C1400      C1401   1.416       .  A
C1401      C1402   1.414       .  A
C1401      C1404   1.456       .  S
C1402      C1405   1.450       .  S
C1403      N1410   1.157       .  T
C1404      N1409   1.158       .  T
C1405      N1407   1.158       .  T
C1406      N1408   1.157       .  T
C1411      C1412   1.411       .  A
C1411      C1416   1.411       .  A
C1412      C1413   1.412       .  A
C1412      C1417   1.453       .  S
C1413      C1414   1.421       .  A
C1413      C1420   1.449       .  S
C1414      C1415   1.420       .  A
C1415      C1416   1.416       .  A
C1415      C1418   1.448       .  S
C1416      C1419   1.452       .  S
C1417      N1424   1.157       .  T
C1418      N1423   1.157       .  T
C1419      N1421   1.157       .  T
C1420      N1422   1.156       .  T
C1425      C1426   1.410   1_655  A
C1425      C1430   1.409       .  A
C1426      C1427   1.413       .  A
C1426      C1431   1.450       .  S
C1427      C1428   1.415   1_455  A
C1427      C1434   1.450       .  S
C1428      C1429   1.414       .  A
C1429      C1430   1.405       .  A
C1429      C1432   1.452       .  S
C1430      C1433   1.452       .  S
C1431      N1438   1.157       .  T
C1432      N1437   1.157       .  T
C1433      N1435   1.157       .  T
C1434      N1436   1.157       .  T
C1439      C1440   1.414   1_455  A
C1439      C1444   1.409       .  A
C1440      C1441   1.408       .  A
C1440      C1445   1.451       .  S
C1441      C1442   1.409   1_655  A
C1441      C1448   1.451       .  S
C1442      C1443   1.410       .  A
C1443      C1444   1.400       .  A
C1443      C1446   1.450       .  S
C1444      C1447   1.452       .  S
C1445      N1452   1.157       .  T
C1446      N1451   1.156       .  T
C1447      N1449   1.157       .  T
C1448      N1450   1.157       .  T
