geometry optimzed in LAMMPS
_audit_creation_date              2020-12-01 
_audit_creation_method            'lammps2cif' 
_symmetry_space_group_name_H-M    'P1' 
_symmetry_Int_Tables_number       1 
_symmetry_cell_setting            triclinic 
loop_ 
_symmetry_equiv_pos_as_xyz 
  x,y,z 
_cell_length_a                    30.89141815 
_cell_length_b                    30.353556821148562 
_cell_length_c                    32.453748083822134 
_cell_angle_alpha                 90.51029870821606 
_cell_angle_beta                  89.27553218988082 
_cell_angle_gamma                 121.58845000385209 
loop_ 
_atom_site_label 
_atom_site_type_symbol 
_atom_site_fract_x 
_atom_site_fract_y 
_atom_site_fract_z 
_atom_site_charge 
In1        In  0.00608628  0.41465374  0.22960481     1.36900
C2          C  0.00917912  0.49931008  0.24654087     0.77800
O3          O  0.92942173  0.40146491  0.23265281    -0.60700
O4          O  0.93592834  0.34467800  0.26331923    -0.51600
C5          C  0.00597833  0.39803406  0.14781718     0.70400
O6          O  0.00676842  0.43563048  0.16521359    -0.46400
C7          C  0.10053936  0.46414477  0.26465998     0.75100
O8          O  0.01324551  0.48694174  0.21016918    -0.58300
O9          O  0.05976126  0.43893804  0.28528762    -0.48400
O10         O  0.00561959  0.46928342  0.27452401    -0.54700
C11         C  0.90833419  0.36394835  0.25678590     0.85300
O12         O  0.00499576  0.36527207  0.17286297    -0.56600
O13         O  0.09275211  0.45296978  0.22678532    -0.59900
In14       In  0.99014272  0.61921297  0.26506443     1.36900
C15         C  0.00388929  0.54232269  0.25466608     0.77800
O16         O  0.90420232  0.60031102  0.26276459    -0.60700
O17         O  0.93305657  0.57457630  0.21755759    -0.51600
C18         C  0.99628061  0.62881279  0.34706795     0.70400
O19         O  0.98964484  0.58998734  0.32706769    -0.46400
C20         C  0.08117022  0.67782986  0.22805529     0.75100
O21         O  0.99755501  0.55516845  0.29021029    -0.58300
O22         O  0.04503924  0.63632049  0.21520863    -0.48400
O23         O  0.00288987  0.56837244  0.22552068    -0.54700
C24         C  0.89358500  0.57003190  0.23229481     0.85300
O25         O  0.99919604  0.66481601  0.32498059    -0.56600
O26         O  0.06828150  0.69742800  0.25685264    -0.59900
In27       In  0.00911897  0.41228815  0.01950940     1.36900
C28         C  0.01782220  0.49858208  0.99787543     0.77800
O29         O  0.09216881  0.45960449  0.02561735    -0.60700
O30         O  0.06582107  0.42065390  0.96916266    -0.51600
C31         C  0.00692876  0.39763263  0.10175678     0.70400
O32         O  0.01125244  0.43616093  0.08370441    -0.46400
C33         C  0.91459175  0.36446971  0.98597385     0.75100
O34         O  0.00502119  0.48039137  0.03380766    -0.58300
O35         O  0.93914315  0.34128609  0.98497401    -0.48400
O36         O  0.03088033  0.47504033  0.47318223    -0.54700
C37         C  0.10351157  0.45531212  0.98911352     0.85300
O38         O  0.00354889  0.36290353  0.07724676    -0.56600
O39         O  0.93770067  0.40484923  0.00679537    -0.59900
In40       In  0.00923253  0.62200715  0.47324489     1.36900
C41         C  0.01169417  0.53948874  0.48465791     0.77800
O42         O  0.09162959  0.69665040  0.47941600    -0.60700
O43         O  0.06430677  0.63743260  0.52216340    -0.51600
C44         C  0.00075571  0.62912179  0.39246169     0.70400
O45         O  0.99875189  0.59098285  0.41001802    -0.46400
C46         C  0.91707214  0.58346091  0.51081818     0.75100
O47         O  0.02775262  0.56338178  0.45088705    -0.58300
O48         O  0.92692564  0.60965718  0.97750426    -0.48400
O49         O  0.99064839  0.55501715  0.00911240    -0.54700
C50         C  0.10264599  0.67713594  0.50880153     0.85300
O51         O  0.00705688  0.66529657  0.41659251    -0.56600
O52         O  0.95574325  0.58687824  0.52550114    -0.59900
C53         C  0.35177951  0.87787082  0.46294549    -0.02300
C54         C  0.15490820  0.69199022  0.02648958    -0.02300
C55         C  0.15680510  0.49450162  0.47082896    -0.02300
C56         C  0.33178062  0.47827545  0.02722325    -0.02300
C57         C  0.52589725  0.67622165  0.46079266    -0.02300
C58         C  0.52633312  0.86113646  0.03352231    -0.02300
C59         C  0.33340806  0.85789210  0.27794606    -0.02300
C60         C  0.13442522  0.69366977  0.21280191    -0.02300
C61         C  0.15163511  0.51256590  0.28135386    -0.02300
C62         C  0.33400719  0.50494950  0.21435932    -0.02300
C63         C  0.53455346  0.68884463  0.27583829    -0.02300
C64         C  0.52122452  0.86354176  0.21939851    -0.02300
In65       In  0.40860450  0.01681909  0.24275710     1.36900
C66         C  0.48852263  0.02348674  0.27303504     0.77800
O67         O  0.46572810  0.09984988  0.23864466    -0.60700
O68         O  0.41707073  0.07796313  0.29025868    -0.51600
C69         C  0.40005169  0.01837673  0.15980708     0.70400
O70         O  0.43557042  0.01997802  0.17944804    -0.46400
C71         C  0.35405136  0.91446297  0.26164487     0.75100
O72         O  0.48156880  0.02864338  0.23574877    -0.58300
O73         O  0.33590596  0.94316060  0.26934894    -0.48400
O74         O  0.45247686  0.01410324  0.29741090    -0.54700
C75         C  0.45700873  0.11397309  0.27260985     0.85300
O76         O  0.36586568  0.01736127  0.18298711    -0.56600
O77         O  0.39575301  0.93875873  0.24288598    -0.59900
In78       In  0.60603342  0.00376811  0.28838464     1.36900
C79         C  0.53327223  0.02260514  0.28339871     0.77800
O80         O  0.66046454  0.08997917  0.28918278    -0.60700
O81         O  0.64626586  0.05525651  0.23178840    -0.51600
C82         C  0.62672867  0.00138595  0.36794418     0.70400
O83         O  0.58587724  0.99405672  0.35366459    -0.46400
C84         C  0.55490400  0.91249507  0.24603643     0.75100
O85         O  0.54390267  0.01293225  0.31810403    -0.58300
O86         O  0.60296891  0.93667430  0.24992236    -0.48400
O87         O  0.56189551  0.02573385  0.25475540    -0.54700
C88         C  0.66219598  0.09704447  0.25111959     0.85300
O89         O  0.65877067  0.00599624  0.34057853    -0.56600
O90         O  0.53535413  0.93094751  0.26887674    -0.59900
In91       In  0.42465050  0.02037369  0.03227890     1.36900
C92         C  0.51267979  0.02586320  0.03562490     0.77800
O93         O  0.36310322  0.93326541  0.02501452    -0.60700
O94         O  0.39332092  0.97440535  0.97074662    -0.51600
C95         C  0.40286764  0.01747524  0.11369835     0.70400
O96         O  0.43830487  0.01403235  0.09777140    -0.46400
C97         C  0.46711878  0.11478850  0.99424711     0.75100
O98         O  0.50907971  0.06458375  0.03984784    -0.58300
O99         O  0.45425881  0.07294342  0.97604297    -0.48400
O100        O  0.47040791  0.98429427  0.53071684    -0.54700
C101        C  0.36694770  0.92993859  0.98639625     0.85300
O102        O  0.37442622  0.02085895  0.08730130    -0.56600
O103        O  0.44775582  0.10673677  0.03012844    -0.59900
In104      In  0.62953645  0.01582854  0.49533033     1.36900
C105        C  0.55940279  0.03043115  0.52639769     0.77800
O106        O  0.55837931  0.94545538  0.50033706    -0.60700
O107        O  0.61881015  0.93600188  0.01841886    -0.51600
C108        C  0.63308724  0.00689626  0.41333808     0.70400
O109        O  0.60076480  0.01137477  0.43369410    -0.46400
C110        C  0.68476653  0.10873586  0.52664936     0.75100
O111        O  0.58137817  0.04873079  0.49242460    -0.58300
O112        O  0.67651225  0.06916359  0.54689692    -0.48400
O113        O  0.57668013  0.00669631  0.04704094    -0.54700
C114        C  0.57016590  0.91574631  0.51592611     0.85300
O115        O  0.66768122  0.00803665  0.43513795    -0.56600
O116        O  0.68046601  0.10079612  0.48835255    -0.59900
C117        C  0.49494892  0.16907946  0.28880621    -0.02300
C118        C  0.46941559  0.34597112  0.22855612    -0.02300
C119        C  0.85546197  0.34757892  0.27685168    -0.02300
C120        C  0.67490926  0.14850220  0.23066091    -0.02300
C121        C  0.83993548  0.52822521  0.21426228    -0.02300
C122        C  0.66628494  0.53845043  0.29106262    -0.02300
C123        C  0.86353651  0.34991288  0.46512201    -0.02300
C124        C  0.69255014  0.15916625  0.04611446    -0.02300
C125        C  0.51253343  0.16971394  0.47837423    -0.02300
C126        C  0.48729979  0.34303222  0.04062615    -0.02300
C127        C  0.86508954  0.54296096  0.02795926    -0.02300
C128        C  0.67557739  0.53639381  0.47787042    -0.02300
In129      In  0.38487285  0.41141116  0.26890844     1.36900
C130        C  0.46734898  0.48578224  0.23340894     0.77800
O131        O  0.41080166  0.35294528  0.27950369    -0.60700
O132        O  0.40389798  0.36973245  0.21885953    -0.51600
C133        C  0.37943729  0.39666192  0.35376848     0.70400
O134        O  0.41515750  0.43457038  0.33428280    -0.46400
C135        C  0.34265565  0.46503583  0.23931191     0.75100
O136        O  0.45220243  0.48660255  0.26958254    -0.58300
O137        O  0.32161319  0.41599712  0.23381659    -0.48400
O138        O  0.44000704  0.44459357  0.21384832    -0.54700
C139        C  0.42398265  0.35259111  0.24267245     0.85300
O140        O  0.34331527  0.36573844  0.32996780    -0.56600
O141        O  0.37691451  0.48102271  0.26603307    -0.59900
In142      In  0.60703603  0.61575747  0.22325640     1.36900
C143        C  0.51482015  0.52960678  0.21831195     0.77800
O144        O  0.64550378  0.57044679  0.22931753    -0.60700
O145        O  0.65041718  0.61277785  0.28187451    -0.51600
C146        C  0.62595268  0.64013621  0.14451867     0.70400
O147        O  0.58548509  0.60515390  0.16039266    -0.46400
C148        C  0.57111584  0.67102023  0.26010280     0.75100
O149        O  0.55420216  0.52830801  0.21087972    -0.58300
O150        O  0.56505770  0.62900292  0.27257664    -0.48400
O151        O  0.52304222  0.57399765  0.22338257    -0.54700
C152        C  0.65645475  0.57755013  0.26707206     0.85300
O153        O  0.66167541  0.66638361  0.16978874    -0.56600
O154        O  0.60551168  0.69175881  0.23244663    -0.59900
In155      In  0.39791457  0.39513165  0.48574982     1.36900
C156        C  0.47861870  0.48177853  0.50658855     0.77800
O157        O  0.38046220  0.43715027  0.53346385    -0.60700
O158        O  0.32599597  0.40377316  0.48713056    -0.51600
C159        C  0.38246939  0.39180920  0.40049573     0.70400
O160        O  0.41467944  0.42973760  0.42130592    -0.46400
C161        C  0.44825780  0.35256373  0.51847850     0.75100
O162        O  0.47586063  0.45444561  0.47603154    -0.58300
O163        O  0.40128096  0.33431372  0.52769768    -0.48400
O164        O  0.43944191  0.46213596  0.02953001    -0.54700
C165        C  0.34363893  0.43605194  0.51660060     0.85300
O166        O  0.35630888  0.35207587  0.42315387    -0.56600
O167        O  0.46312479  0.38474295  0.48996768    -0.59900
In168      In  0.60663806  0.61933877  0.02184163     1.36900
C169        C  0.52244636  0.53164739  0.01436902     0.77800
O170        O  0.56891432  0.66616406  0.02002607    -0.60700
O171        O  0.59245017  0.65194039  0.96340212    -0.51600
C172        C  0.62554727  0.64385895  0.09964893     0.70400
O173        O  0.58264243  0.61778263  0.08344588    -0.46400
C174        C  0.65869566  0.57356402  0.99854763     0.75100
O175        O  0.53620612  0.55157785  0.04950366    -0.58300
O176        O  0.67295752  0.61942833  0.98717381    -0.48400
O177        O  0.55327399  0.55596744  0.48458441    -0.54700
C178        C  0.56586250  0.66694986  0.98141792     0.85300
O179        O  0.66301515  0.66537237  0.07455768    -0.56600
O180        O  0.62207730  0.55574577  0.02360114    -0.59900
C181        C  0.81763098  0.58971120  0.01360446    -0.05600
C182        C  0.81847452  0.54363124  0.00869420     0.00300
C183        C  0.77247313  0.49902755  0.49129653    -0.08200
C184        C  0.73900946  0.50951929  0.47119528    -0.05600
C185        C  0.73111155  0.54874227  0.48532736     0.00300
C186        C  0.77383409  0.59286593  0.00663230    -0.08100
C187        C  0.77601676  0.64229619  0.01980323     0.62200
H188        H  0.85048415  0.62259023  0.02645579     0.12900
H189        H  0.71053360  0.47940829  0.45186309     0.12900
C190        C  0.74716306  0.44039399  0.49832128     0.62500
F191        F  0.82242760  0.67809704  0.03680872    -0.22700
F192        F  0.73952162  0.63182767  0.04943673    -0.20000
F193        F  0.76953886  0.66573265  0.98622894    -0.19700
F194        F  0.77109663  0.42392856  0.52344596    -0.19800
F195        F  0.73881011  0.41545053  0.46092159    -0.20100
F196        F  0.70026274  0.42256854  0.51666047    -0.22800
C197        C  0.58466777  0.41707663  0.05195114    -0.05600
C198        C  0.54480848  0.38517801  0.02391883     0.00300
C199        C  0.56226389  0.39069451  0.48116326    -0.08200
C200        C  0.61112664  0.43440368  0.47065302    -0.05600
C201        C  0.63791775  0.47835152  0.49659163     0.00300
C202        C  0.62891113  0.46564588  0.04055959    -0.08100
C203        C  0.66615778  0.49877251  0.07443276     0.62200
H204        H  0.58006884  0.40525775  0.08363161     0.12900
H205        H  0.62650379  0.43640199  0.44038993     0.12900
C206        C  0.53388762  0.35234968  0.44592439     0.62500
F207        F  0.65258350  0.47396937  0.11196979    -0.22700
F208        F  0.66823277  0.54475803  0.08019826    -0.20000
F209        F  0.71415424  0.50903909  0.06517557    -0.19700
F210        F  0.48922760  0.34904871  0.43594476    -0.19800
F211        F  0.52322369  0.30411331  0.45561283    -0.20100
F212        F  0.56280380  0.36597965  0.41011922    -0.22800
C213        C  0.45681666  0.20765242  0.99405401    -0.05600
C214        C  0.50514103  0.21319206  0.50026317     0.00300
C215        C  0.53945095  0.25712767  0.52591758    -0.08200
C216        C  0.52046586  0.28410458  0.54769716    -0.05600
C217        C  0.48072951  0.28817173  0.03208779     0.00300
C218        C  0.44477146  0.24528224  0.00699990    -0.08100
C219        C  0.39381829  0.23664042  0.99346548     0.62200
H220        H  0.42894665  0.17462271  0.97677688     0.12900
H221        H  0.54477338  0.31284068  0.57020679     0.12900
C222        C  0.59745128  0.28866024  0.52686254     0.62500
F223        F  0.40080887  0.27371731  0.96537607    -0.22700
F224        F  0.36648766  0.23700916  0.02728708    -0.20000
F225        F  0.36403534  0.18925249  0.97422606    -0.19700
F226        F  0.61395142  0.33616745  0.50916909    -0.19800
F227        F  0.62185834  0.26803442  0.50651036    -0.20100
F228        F  0.61339014  0.29866060  0.56720317    -0.22800
C229        C  0.63728331  0.16254660  0.48829347    -0.05600
C230        C  0.64737788  0.16726815  0.03032158     0.00300
C231        C  0.61586654  0.18074587  0.05420049    -0.08200
C232        C  0.57062764  0.17397196  0.03637760    -0.05600
C233        C  0.56015741  0.16725417  0.49397601     0.00300
C234        C  0.59057137  0.15214695  0.47127042    -0.08100
C235        C  0.57277797  0.11693222  0.43329758     0.62200
H236        H  0.66488848  0.16266787  0.46762712     0.12900
H237        H  0.54518490  0.17979108  0.05546798     0.12900
C238        C  0.63488160  0.21860796  0.09071335     0.62500
F239        F  0.60749698  0.10325519  0.42223726    -0.22700
F240        F  0.56634755  0.13897412  0.39957017    -0.20000
F241        F  0.52783597  0.07163647  0.44125936    -0.19700
F242        F  0.67064198  0.26663574  0.07606177    -0.19800
F243        F  0.65640283  0.20775329  0.12202694    -0.20100
F244        F  0.59598165  0.22178833  0.10921287    -0.22800
C245        C  0.85857222  0.40866391  0.02303902    -0.05600
C246        C  0.85540294  0.39693675  0.48016901     0.00300
C247        C  0.84926615  0.43262035  0.45598872    -0.08200
C248        C  0.85972714  0.48024184  0.47291934    -0.05600
C249        C  0.86530641  0.49258175  0.01504073     0.00300
C250        C  0.86983072  0.45660484  0.04035938    -0.08100
C251        C  0.89205043  0.46724807  0.08356412     0.62200
H252        H  0.85946677  0.38130190  0.04337024     0.12900
H253        H  0.85948666  0.50840196  0.45285580     0.12900
C254        C  0.82368893  0.41936291  0.41504652     0.62500
F255        F  0.92043937  0.44444724  0.08867440    -0.22700
F256        F  0.85343455  0.44611133  0.11264266    -0.20000
F257        F  0.92495358  0.51912350  0.09096106    -0.19700
F258        F  0.77940609  0.37159056  0.41712481    -0.19800
F259        F  0.85683106  0.42057480  0.38680063    -0.20100
F260        F  0.81048426  0.45421986  0.40223546    -0.22800
C261        C  0.77797376  0.20435169  0.50373970    -0.05600
C262        C  0.74376421  0.20842522  0.03086938     0.00300
C263        C  0.75308614  0.25904996  0.03650424    -0.08200
C264        C  0.77819232  0.29487115  0.00478894    -0.05600
C265        C  0.81997424  0.29638463  0.48358139     0.00300
C266        C  0.81747484  0.24748919  0.48170762    -0.08100
C267        C  0.85124038  0.23488329  0.45596069     0.62200
H268        H  0.77470852  0.16733190  0.49978380     0.12900
H269        H  0.77253183  0.32702608  0.00434324     0.12900
C270        C  0.77126248  0.28530431  0.07777316     0.62500
F271        F  0.87738087  0.22125394  0.48205192    -0.22700
F272        F  0.88599083  0.27407278  0.43097018    -0.20000
F273        F  0.82097407  0.19314665  0.43058689    -0.19700
F274        F  0.76548242  0.32745559  0.08140092    -0.19800
F275        F  0.74618084  0.25236787  0.10979324    -0.20100
F276        F  0.82243534  0.30299955  0.08092294    -0.22800
C277        C  0.63336150  0.50275403  0.36460970    -0.05600
C278        C  0.67012395  0.54458282  0.33989304     0.00300
C279        C  0.70912866  0.58764784  0.36296006    -0.08200
C280        C  0.71056091  0.58322398  0.40682417    -0.05600
C281        C  0.67094197  0.54150792  0.42980026     0.00300
C282        C  0.62754641  0.50798564  0.40667886    -0.08100
C283        C  0.57426888  0.49127407  0.42071545     0.62200
H284        H  0.60379083  0.46733235  0.35122122     0.12900
H285        H  0.74311768  0.61314952  0.42312890     0.12900
C286        C  0.75248295  0.63720336  0.34446580     0.62500
F287        F  0.56458629  0.52858699  0.40881407    -0.22700
F288        F  0.56764003  0.48662725  0.46226195    -0.20000
F289        F  0.53899909  0.44428889  0.40346937    -0.19700
F290        F  0.75461698  0.67904642  0.36391374    -0.19800
F291        F  0.74803825  0.64219650  0.30295520    -0.20100
F292        F  0.79773253  0.63939022  0.35096392    -0.22800
C293        C  0.88624100  0.57946398  0.14602585    -0.05600
C294        C  0.84306789  0.53537864  0.16477363     0.00300
C295        C  0.80431711  0.50296314  0.13564738    -0.08200
C296        C  0.81498673  0.50936540  0.09325247    -0.05600
C297        C  0.85998752  0.54868691  0.07559678     0.00300
C298        C  0.89339760  0.58932442  0.10308164    -0.08100
C299        C  0.93631601  0.64383303  0.09079771     0.62200
H300        H  0.91425681  0.61023336  0.16475834     0.12900
H301        H  0.78699287  0.48235567  0.07267894     0.12900
C302        C  0.75093594  0.46120670  0.14643853     0.62500
F303        F  0.94289372  0.67956369  0.12078561    -0.22700
F304        F  0.92720882  0.66153935  0.05512497    -0.20000
F305        F  0.98128434  0.64491448  0.08655013    -0.19700
F306        F  0.72909640  0.48183081  0.17079315    -0.19800
F307        F  0.75297694  0.42182909  0.16417571    -0.20100
F308        F  0.71940167  0.43941121  0.11278014    -0.22800
C309        C  0.74341257  0.57209102  0.24093280    -0.05600
C310        C  0.71659872  0.54068011  0.27533713     0.00300
C311        C  0.73945464  0.51452455  0.29406190    -0.08200
C312        C  0.78340485  0.51898292  0.27555032    -0.05600
C313        C  0.80091524  0.53945693  0.23591385     0.00300
C314        C  0.78563919  0.57386607  0.22192149    -0.08100
C315        C  0.81512709  0.61662009  0.19031434     0.62200
H316        H  0.73191925  0.59671474  0.22803901     0.12900
H317        H  0.80221775  0.50211640  0.29065898     0.12900
C318        C  0.71900190  0.47992896  0.33223921     0.62500
F319        F  0.80202984  0.65383701  0.19187895    -0.22700
F320        F  0.80513531  0.59682653  0.15081749    -0.20000
F321        F  0.86642921  0.64217369  0.19844201    -0.19700
F322        F  0.66790351  0.44370289  0.32798432    -0.19800
F323        F  0.72788349  0.50891843  0.36737055    -0.20100
F324        F  0.74296744  0.45290318  0.33888194    -0.22800
C325        C  0.63954095  0.11710866  0.11122539    -0.05600
C326        C  0.68861564  0.14756016  0.09361638     0.00300
C327        C  0.72846178  0.15377950  0.11957536    -0.08200
C328        C  0.71967035  0.14893421  0.16271544    -0.05600
C329        C  0.67334395  0.13826935  0.18182124     0.00300
C330        C  0.63055666  0.11535175  0.15426458    -0.08100
C331        C  0.57496966  0.09118347  0.16520666     0.62200
H332        H  0.60707226  0.09974226  0.09105132     0.12900
H333        H  0.75086612  0.15636499  0.18208450     0.12900
C334        C  0.77929394  0.16317055  0.10357543     0.62500
F335        F  0.55654977  0.11974725  0.14815572    -0.22700
F336        F  0.56664580  0.08879456  0.20630827    -0.20000
F337        F  0.54742846  0.04141752  0.14958512    -0.19700
F338        F  0.80990189  0.21316213  0.09002039    -0.19800
F339        F  0.77217801  0.12943135  0.07196638    -0.20100
F340        F  0.80563338  0.15543194  0.13402490    -0.22800
C341        C  0.90293495  0.36725899  0.34596026    -0.05600
C342        C  0.85576003  0.34365202  0.32579551     0.00300
C343        C  0.81164909  0.31868095  0.35262782    -0.08200
C344        C  0.81821120  0.31364972  0.39539947    -0.05600
C345        C  0.86485979  0.34510814  0.41602945     0.00300
C346        C  0.90825615  0.37363336  0.38919984    -0.08100
C347        C  0.95906427  0.41685562  0.40381947     0.62200
H348        H  0.93715676  0.38716936  0.32772150     0.12900
H349        H  0.78471940  0.29124150  0.41423730     0.12900
C350        C  0.75843780  0.30539890  0.34038156     0.62500
F351        F  0.98917242  0.44939930  0.37241131    -0.22700
F352        F  0.98523227  0.39632471  0.42075463    -0.20000
F353        F  0.95129147  0.44698790  0.43113909    -0.19700
F354        F  0.72309707  0.28027290  0.37159145    -0.19800
F355        F  0.74030128  0.27391178  0.30645589    -0.20100
F356        F  0.75927832  0.35042488  0.33303458    -0.22800
C357        C  0.79383286  0.38070118  0.25414361    -0.05600
C358        C  0.84218520  0.39026405  0.26552400     0.00300
C359        C  0.87927452  0.44330451  0.26518168    -0.08200
C360        C  0.87579432  0.46978427  0.23131666    -0.05600
C361        C  0.83115889  0.47164714  0.22696707     0.00300
C362        C  0.78638246  0.42162757  0.24112077    -0.08100
C363        C  0.72996986  0.40290153  0.24366599     0.62200
H364        H  0.76112573  0.34222641  0.25783861     0.12900
H365        H  0.90857710  0.49087781  0.21162949     0.12900
C366        C  0.88473302  0.46974458  0.30617217     0.62500
F367        F  0.70284272  0.35972396  0.21877135    -0.22700
F368        F  0.71841366  0.43851081  0.23264732    -0.20000
F369        F  0.71224604  0.38740280  0.28331525    -0.19700
F370        F  0.91998709  0.46721798  0.32997532    -0.19800
F371        F  0.83800283  0.44727535  0.32556797    -0.20100
F372        F  0.89968985  0.52062985  0.30208718    -0.22800
C373        C  0.81039752  0.24855508  0.27604614    -0.05600
C374        C  0.81826712  0.29414169  0.25761439     0.00300
C375        C  0.78993553  0.28717976  0.22172771    -0.08200
C376        C  0.74311870  0.24111627  0.21742106    -0.05600
C377        C  0.72957258  0.19607753  0.24000689     0.00300
C378        C  0.76966846  0.19888601  0.26445171    -0.08100
C379        C  0.77538185  0.15357679  0.27569058     0.62200
H380        H  0.83677834  0.25177541  0.29930319     0.12900
H381        H  0.71904939  0.23888855  0.19264451     0.12900
C382        C  0.81070936  0.32030004  0.18343851     0.62500
F383        F  0.82638816  0.16979027  0.27810033    -0.22700
F384        F  0.75521186  0.11512565  0.24612590    -0.20000
F385        F  0.75342904  0.13387962  0.31370522    -0.19700
F386        F  0.82366786  0.29378270  0.15641348    -0.19800
F387        F  0.85349894  0.36807888  0.18866416    -0.20100
F388        F  0.77407604  0.32764019  0.16651197    -0.22800
C389        C  0.49967947  0.39138557  0.15731719    -0.05600
C390        C  0.46684424  0.34534808  0.17895744     0.00300
C391        C  0.42821293  0.30590963  0.15271418    -0.08200
C392        C  0.43885276  0.30544948  0.10984264    -0.05600
C393        C  0.47894707  0.34849622  0.08903259     0.00300
C394        C  0.50118431  0.39488673  0.11382575    -0.08100
C395        C  0.51988186  0.44872758  0.09836205     0.62200
H396        H  0.52087330  0.42716604  0.17436932     0.12900
H397        H  0.41290954  0.27203724  0.09177460     0.12900
C398        C  0.37338900  0.26722859  0.16566844     0.62500
F399        F  0.48668013  0.46356398  0.11182491    -0.22700
F400        F  0.52224459  0.45127966  0.05655547    -0.20000
F401        F  0.56754666  0.48339980  0.11378106    -0.19700
F402        F  0.36570986  0.26111270  0.20766658    -0.19800
F403        F  0.35751283  0.21917716  0.14877460    -0.20100
F404        F  0.34273234  0.28381974  0.15041784    -0.22800
C405        C  0.52287967  0.43380887  0.26992622    -0.05600
C406        C  0.52275274  0.39582832  0.24383213     0.00300
C407        C  0.57289953  0.40679332  0.23312338    -0.08200
C408        C  0.61702639  0.45139644  0.24954662    -0.05600
C409        C  0.61578963  0.48660400  0.27772843     0.00300
C410        C  0.56612024  0.47729077  0.28723296    -0.08100
C411        C  0.55393837  0.51059641  0.31583471     0.62200
H412        H  0.48797307  0.42944255  0.27964061     0.12900
H413        H  0.65347312  0.45940352  0.23861201     0.12900
C414        C  0.58466797  0.37631865  0.20244415     0.62500
F415        F  0.51602227  0.47894633  0.34328265    -0.22700
F416        F  0.53708466  0.53562380  0.29391276    -0.20000
F417        F  0.59236008  0.55050746  0.33714608    -0.19700
F418        F  0.54376808  0.32906222  0.19146238    -0.19800
F419        F  0.62063304  0.36808846  0.21897143    -0.20100
F420        F  0.60508306  0.40519078  0.16717501    -0.22800
C421        C  0.54184192  0.20657655  0.35832831    -0.05600
C422        C  0.49515194  0.17219954  0.33869237     0.00300
C423        C  0.45284537  0.14734839  0.36667547    -0.08200
C424        C  0.46139377  0.14448091  0.40942553    -0.05600
C425        C  0.50930102  0.17542769  0.42912567     0.00300
C426        C  0.54895795  0.21286341  0.40178131    -0.08100
C427        C  0.60018118  0.25852566  0.41525753     0.62200
H428        H  0.57386137  0.23055518  0.33839160     0.12900
H429        H  0.42805500  0.12028617  0.42810812     0.12900
C430        C  0.39829602  0.12892575  0.35572150     0.62500
F431        F  0.62899073  0.28980842  0.38265858    -0.22700
F432        F  0.62934322  0.24264542  0.43387486    -0.20000
F433        F  0.59255618  0.28949049  0.44110847    -0.19700
F434        F  0.36872036  0.07563476  0.35876514    -0.19800
F435        F  0.39377747  0.14418053  0.31702140    -0.20100
F436        F  0.37936820  0.14999595  0.38326483    -0.22800
C437        C  0.56648544  0.14880558  0.29624976    -0.05600
C438        C  0.54883205  0.17590650  0.27352620     0.00300
C439        C  0.57956912  0.20103282  0.23719886    -0.08200
C440        C  0.61853036  0.19115837  0.22399958    -0.05600
C441        C  0.63578845  0.16478416  0.24825246     0.00300
C442        C  0.61422692  0.15396801  0.28891151    -0.08100
C443        C  0.64263821  0.15832470  0.32782774     0.62200
H444        H  0.54603718  0.12850712  0.32384245     0.12900
H445        H  0.63580687  0.20444070  0.19416630     0.12900
C446        C  0.57565678  0.24110011  0.21337844     0.62500
F447        F  0.64127152  0.19377508  0.35385558    -0.22700
F448        F  0.69308654  0.17568531  0.32139826    -0.20000
F449        F  0.61920047  0.11094766  0.34706619    -0.19700
F450        F  0.57975886  0.27778375  0.24072260    -0.19800
F451        F  0.53061887  0.21898294  0.19245631    -0.20100
F452        F  0.61456491  0.26639604  0.18473925    -0.22800
C453        C  0.50281394  0.25784208  0.29295352    -0.05600
C454        C  0.48219082  0.21037550  0.27133483     0.00300
C455        C  0.44869887  0.20491465  0.23807517    -0.08200
C456        C  0.44922169  0.24973739  0.22476541    -0.05600
C457        C  0.46656821  0.29570532  0.24809991     0.00300
C458        C  0.48951667  0.29531160  0.28631679    -0.08100
C459        C  0.50165585  0.33147787  0.32284101     0.62200
H460        H  0.52872403  0.26613631  0.31765377     0.12900
H461        H  0.43713716  0.24779239  0.19415786     0.12900
C462        C  0.41341993  0.15546660  0.21333684     0.62500
F463        F  0.48811707  0.30285840  0.35881645    -0.22700
F464        F  0.47514604  0.35600526  0.32364149    -0.20000
F465        F  0.55323639  0.36750999  0.32357481    -0.19700
F466        F  0.38033378  0.11561153  0.23889391    -0.19800
F467        F  0.44073816  0.14123620  0.18867421    -0.20100
F468        F  0.38240428  0.16194328  0.18700568    -0.22800
C469        C  0.52994517  0.81039651  0.27583929    -0.05600
C470        C  0.53562509  0.82335214  0.23393101     0.00300
C471        C  0.56111665  0.80300403  0.20945038    -0.08200
C472        C  0.55883359  0.75844491  0.22319029    -0.05600
C473        C  0.55317854  0.74621543  0.26494111     0.00300
C474        C  0.55119171  0.78313744  0.29176295    -0.08100
C475        C  0.59263359  0.81570009  0.32272941     0.62200
H476        H  0.52003710  0.83148652  0.29721293     0.12900
H477        H  0.56654062  0.73624442  0.20139945     0.12900
C478        C  0.60375615  0.83297362  0.17828120     0.62500
F479        F  0.60828390  0.86769319  0.32067442    -0.22700
F480        F  0.63568482  0.81391612  0.31494583    -0.20000
F481        F  0.57405032  0.79932183  0.36196540    -0.19700
F482        F  0.62915142  0.88475473  0.18694827    -0.19800
F483        F  0.58530542  0.82309884  0.13881976    -0.20100
F484        F  0.63998270  0.81912454  0.18000333    -0.22800
C485        C  0.39079216  0.58431838  0.26197877    -0.05600
C486        C  0.38634774  0.56068369  0.22288237     0.00300
C487        C  0.43296602  0.58735070  0.19836635    -0.08200
C488        C  0.47721408  0.63272719  0.21445773    -0.05600
C489        C  0.47994881  0.65427610  0.25393352     0.00300
C490        C  0.43160559  0.63388097  0.27355258    -0.08100
C491        C  0.41871398  0.66205872  0.30526255     0.62200
H492        H  0.35971780  0.56501328  0.28388300     0.12900
H493        H  0.51219803  0.64997475  0.19702440     0.12900
C494        C  0.44091171  0.56770764  0.15728750     0.62500
F495        F  0.38186852  0.66843009  0.28858956    -0.22700
F496        F  0.45900528  0.70998952  0.31506059    -0.20000
F497        F  0.39911582  0.63359387  0.34097344    -0.19700
F498        F  0.41052268  0.56921594  0.12760994    -0.19800
F499        F  0.43152556  0.51842130  0.16175224    -0.20100
F500        F  0.49013558  0.59746250  0.14226885    -0.22800
C501        C  0.19575640  0.46545333  0.25662135    -0.05600
C502        C  0.19799886  0.51337831  0.25882077     0.00300
C503        C  0.24514985  0.55765076  0.24453415    -0.08200
C504        C  0.28726223  0.55159333  0.23983620    -0.05600
C505        C  0.28468980  0.50392912  0.23284729     0.00300
C506        C  0.23468473  0.45914661  0.23905366    -0.08100
C507        C  0.21962126  0.40379691  0.22945077     0.62200
H508        H  0.16157920  0.43124245  0.26766187     0.12900
H509        H  0.32233538  0.58651252  0.23499655     0.12900
C510        C  0.25478687  0.60999190  0.22775305     0.62500
F511        F  0.16756435  0.37232251  0.22429940    -0.22700
F512        F  0.23294066  0.38407528  0.26175840    -0.20000
F513        F  0.24139731  0.40062611  0.19317482    -0.19700
F514        F  0.30587815  0.64655372  0.22230307    -0.19800
F515        F  0.23720319  0.63385455  0.25264096    -0.20100
F516        F  0.23375435  0.60274147  0.18917759    -0.22800
C517        C  0.14227174  0.56474125  0.22405432    -0.05600
C518        C  0.14414523  0.55834953  0.26672798     0.00300
C519        C  0.12887689  0.58778774  0.29038236    -0.08200
C520        C  0.13068665  0.63185901  0.27243053    -0.05600
C521        C  0.13708419  0.64392504  0.22930751     0.00300
C522        C  0.13297035  0.60119795  0.20549866    -0.08100
C523        C  0.11574470  0.58692217  0.16145128     0.62200
H524        H  0.14717798  0.53904539  0.20394836     0.12900
H525        H  0.11992067  0.65284760  0.29237323     0.12900
C526        C  0.10361394  0.56979504  0.33207907     0.62500
F527        F  0.08957180  0.53395768  0.15537144    -0.22700
F528        F  0.15878351  0.60732984  0.13778341    -0.20000
F529        F  0.08303574  0.60197224  0.14900979    -0.19700
F530        F  0.13963808  0.58684332  0.36157439    -0.19800
F531        F  0.07363419  0.51678898  0.33402142    -0.20100
F532        F  0.07308558  0.58911995  0.34131781    -0.22800
C533        C  0.42928114  0.80863449  0.25742296    -0.05600
C534        C  0.46184577  0.84670222  0.22768352     0.00300
C535        C  0.43656749  0.86934070  0.20695744    -0.08200
C536        C  0.38482273  0.85150219  0.21566240    -0.05600
C537        C  0.36490251  0.83463596  0.25537938     0.00300
C538        C  0.38263506  0.80364871  0.27239554    -0.08100
C539        C  0.35035161  0.76003744  0.30142788     0.62200
H540        H  0.43951327  0.78289570  0.27038150     0.12900
H541        H  0.36546251  0.86411501  0.19629500     0.12900
C542        C  0.46351350  0.92116352  0.18560048     0.62500
F543        F  0.33924073  0.71452334  0.28309812    -0.22700
F544        F  0.30465091  0.75527394  0.30918662    -0.20000
F545        F  0.37554888  0.76647215  0.33795793    -0.19700
F546        F  0.49377621  0.92465737  0.15472429    -0.19800
F547        F  0.49248881  0.95728800  0.21373820    -0.20100
F548        F  0.43110301  0.93438591  0.16869920    -0.22800
C549        C  0.18399219  0.75307717  0.27372553    -0.05600
C550        C  0.17760259  0.74798425  0.23121020     0.00300
C551        C  0.21620301  0.79253321  0.20878657    -0.08200
C552        C  0.26436746  0.82307063  0.22607632    -0.05600
C553        C  0.27546405  0.82009375  0.26732671     0.00300
C554        C  0.23174948  0.78418321  0.29278559    -0.08100
C555        C  0.22703922  0.77108389  0.33876363     0.62200
H556        H  0.15095850  0.73097192  0.29299228     0.12900
H557        H  0.29306376  0.85360076  0.20702831     0.12900
C558        C  0.20981692  0.81830995  0.17110136     0.62500
F559        F  0.19954092  0.71784576  0.34342230    -0.22700
F560        F  0.20059406  0.79059657  0.35838448    -0.20000
F561        F  0.27097714  0.78757421  0.35931624    -0.19700
F562        F  0.16058374  0.80000176  0.16120390    -0.19800
F563        F  0.23546130  0.81382969  0.13775985    -0.20100
F564        F  0.23069909  0.87063654  0.17875493    -0.22800
C565        C  0.56385260  0.90482265  0.10359482    -0.05600
C566        C  0.52827612  0.85919725  0.08208722     0.02700
C567        C  0.49520171  0.81511592  0.10701147    -0.08200
C568        C  0.49607538  0.82134259  0.15026522    -0.05600
C569        C  0.52994987  0.86783130  0.17147248     0.00300
C570        C  0.56667943  0.91106172  0.14668649    -0.08100
C571        C  0.60376324  0.96663340  0.16196588     0.62200
H572        H  0.59008817  0.93809728  0.08626282     0.12900
H573        H  0.46975005  0.78848841  0.16891020     0.12900
C574        C  0.45779155  0.76123034  0.08999355     0.62500
F575        F  0.62384453  0.00250942  0.13034082    -0.22700
F576        F  0.64490796  0.97100698  0.18187236    -0.20000
F577        F  0.57905626  0.98276972  0.18724757    -0.19700
F578        F  0.48404543  0.74017012  0.07292678    -0.19800
F579        F  0.42643415  0.76294330  0.06110693    -0.20100
F580        F  0.42639046  0.72732969  0.12037423    -0.22800
C581        C  0.48930204  0.64672284  0.38681966    -0.05600
C582        C  0.53173182  0.68055669  0.41201806     0.00300
C583        C  0.57854131  0.71426987  0.39000059    -0.08200
C584        C  0.57848588  0.71084262  0.34622299    -0.05600
C585        C  0.53401190  0.68052244  0.32318076     0.00300
C586        C  0.49438825  0.63888104  0.34468032    -0.08100
C587        C  0.46782882  0.58286819  0.32847990     0.62200
H588        H  0.45293625  0.62107940  0.40062509     0.12900
H589        H  0.61344858  0.73252505  0.32905685     0.12900
C590        C  0.62728640  0.75837115  0.40969627     0.62500
F591        F  0.49015465  0.55825005  0.34507788    -0.22700
F592        F  0.47240365  0.57709876  0.28747705    -0.20000
F593        F  0.41637768  0.55651439  0.33756535    -0.19700
F594        F  0.64786319  0.74138218  0.43806296    -0.19800
F595        F  0.61768764  0.79341460  0.42825573    -0.20100
F596        F  0.66519712  0.78563121  0.38068056    -0.22800
C597        C  0.49076602  0.77987746  0.48891825    -0.05600
C598        C  0.53123727  0.81587213  0.01398634     0.00300
C599        C  0.57202600  0.80643569  0.01976219    -0.08200
C600        C  0.56862907  0.76209015  0.00159297    -0.05600
C601        C  0.52840600  0.72726527  0.47603168     0.00300
C602        C  0.49076119  0.73988448  0.46685476    -0.08100
C603        C  0.45076031  0.71443748  0.43311901     0.62200
H604        H  0.45670955  0.78066570  0.48685092     0.12900
H605        H  0.60001694  0.75668486  0.00664399     0.12900
C606        C  0.62064878  0.83830907  0.04443805     0.62500
F607        F  0.41816555  0.73280287  0.43177595    -0.22700
F608        F  0.42037016  0.66199619  0.43864469    -0.20000
F609        F  0.47482392  0.72581248  0.39530816    -0.19700
F610        F  0.62328422  0.87720721  0.06772581    -0.19800
F611        F  0.66165460  0.85986431  0.01745514    -0.20100
F612        F  0.62605695  0.80623322  0.07121377    -0.22800
C613        C  0.30547319  0.50374179  0.09402122    -0.05600
C614        C  0.32269782  0.47412117  0.07626090     0.00300
C615        C  0.32559694  0.44010152  0.10540324    -0.08200
C616        C  0.33326420  0.45419334  0.14770942    -0.05600
C617        C  0.32540697  0.49242857  0.16565952     0.00300
C618        C  0.30782437  0.51548372  0.13635583    -0.08100
C619        C  0.29131946  0.55313012  0.14638189     0.62200
H620        H  0.28643084  0.51539673  0.07399779     0.12900
H621        H  0.34456372  0.43288449  0.16628149     0.12900
C622        C  0.30701658  0.38303054  0.09769035     0.62500
F623        F  0.28341710  0.57449497  0.11227274    -0.22700
F624        F  0.32921437  0.59466315  0.16744645    -0.20000
F625        F  0.24500579  0.52684561  0.16628865    -0.19700
F626        F  0.34774435  0.37614841  0.09402303    -0.19800
F627        F  0.27617187  0.36309264  0.06364391    -0.20100
F628        F  0.27757907  0.35341051  0.13073622    -0.22800
C629        C  0.44514273  0.62907764  0.00833787    -0.05600
C630        C  0.47548885  0.62571162  0.47752764     0.00300
C631        C  0.45992080  0.57378661  0.46675367    -0.08200
C632        C  0.41630906  0.53187770  0.48512021    -0.05600
C633        C  0.38189177  0.53385408  0.01307048     0.00300
C634        C  0.39653406  0.58725644  0.02145252    -0.08100
C635        C  0.36406160  0.60612314  0.04070944     0.62200
H636        H  0.45835293  0.66647054  0.02184198     0.12900
H637        H  0.40596326  0.49553121  0.47161308     0.12900
C638        C  0.47734801  0.55763579  0.42896702     0.62500
F639        F  0.37946152  0.65582863  0.02806515    -0.22700
F640        F  0.36951774  0.60821215  0.08272510    -0.20000
F641        F  0.31435293  0.57683667  0.02883960    -0.19700
F642        F  0.48261032  0.51755336  0.43401336    -0.19800
F643        F  0.52398950  0.59338826  0.41303994    -0.20100
F644        F  0.43736957  0.53863285  0.40246740    -0.22800
C645        C  0.19293016  0.54085400  0.40022927    -0.05600
C646        C  0.15873470  0.49399530  0.42066735     0.00300
C647        C  0.13426771  0.45076548  0.39295457    -0.08200
C648        C  0.13149283  0.45917680  0.34999232    -0.05600
C649        C  0.15939477  0.50837985  0.33025971     0.00300
C650        C  0.19736614  0.54837687  0.35685943    -0.08100
C651        C  0.24224292  0.60068039  0.34299574     0.62200
H652        H  0.21657242  0.57375042  0.41952683     0.12900
H653        H  0.11065052  0.42499388  0.33112824     0.12900
C654        C  0.11669270  0.39549796  0.40438078     0.62500
F655        F  0.27248887  0.63071899  0.37531451    -0.22700
F656        F  0.22565278  0.62946567  0.32442964    -0.20000
F657        F  0.27404381  0.59378423  0.31767764    -0.19700
F658        F  0.06429926  0.36508626  0.40276698    -0.19800
F659        F  0.13280268  0.39171887  0.44257319    -0.20100
F660        F  0.13693710  0.37596764  0.37663526    -0.22800
C661        C  0.23513850  0.43670329  0.02210986    -0.05600
C662        C  0.28302688  0.46884723  0.00398721     0.00300
C663        C  0.28466661  0.49886898  0.47085965    -0.08200
C664        C  0.24681199  0.51093379  0.46754633    -0.05600
C665        C  0.19819862  0.48173736  0.48629321     0.00300
C666        C  0.19195050  0.44078440  0.01456436    -0.08100
C667        C  0.14531114  0.40424617  0.04150645     0.62200
H668        H  0.23335884  0.41062079  0.04529532     0.12900
H669        H  0.25572571  0.54184260  0.44693815     0.12900
C670        C  0.31761495  0.50895971  0.43287701     0.62500
F671        F  0.10219890  0.37433433  0.01863906    -0.22700
F672        F  0.13708273  0.43207912  0.07093769    -0.20000
F673        F  0.15194603  0.36913133  0.06321705    -0.19700
F674        F  0.33477745  0.47524521  0.43053003    -0.19800
F675        F  0.35787789  0.55945357  0.43261716    -0.20100
F676        F  0.28945188  0.50094231  0.39764845    -0.22800
C677        C  0.11199960  0.69916288  0.09422638    -0.05600
C678        C  0.15395726  0.69885097  0.07558253     0.00300
C679        C  0.19376561  0.70809326  0.10370226    -0.08200
C680        C  0.18385729  0.70482723  0.14681651    -0.05600
C681        C  0.13933171  0.69920487  0.16466946     0.00300
C682        C  0.10496078  0.70215844  0.13701789    -0.08100
C683        C  0.06286211  0.71277232  0.14949332     0.62200
H684        H  0.08466846  0.70057286  0.07506191     0.12900
H685        H  0.21180197  0.70712055  0.16794320     0.12900
C686        C  0.24820852  0.72533591  0.09072552     0.62500
F687        F  0.05471979  0.73861324  0.11846409    -0.22700
F688        F  0.07432979  0.74397422  0.18384911    -0.20000
F689        F  0.01787472  0.66683140  0.15658140    -0.19700
F690        F  0.24976643  0.69157709  0.06318970    -0.19800
F691        F  0.27768330  0.72874171  0.12383815    -0.20100
F692        F  0.27147172  0.77408563  0.07371064    -0.22800
C693        C  0.15842970  0.60827077  0.04026215    -0.05600
C694        C  0.15475945  0.64074051  0.01204284     0.00300
C695        C  0.15159996  0.62370935  0.46988012    -0.08200
C696        C  0.14673643  0.57521624  0.46085612    -0.05600
C697        C  0.16298775  0.54911708  0.48716121     0.00300
C698        C  0.16918884  0.56900328  0.02952799    -0.08100
C699        C  0.18719047  0.55239904  0.06605269     0.62200
H700        H  0.15723390  0.61671707  0.07166890     0.12900
H701        H  0.13037938  0.55838330  0.43153422     0.12900
C702        C  0.15467303  0.65468636  0.43192628     0.62500
F703        F  0.22070547  0.59572525  0.08859116    -0.22700
F704        F  0.21300627  0.52884833  0.05542580    -0.20000
F705        F  0.14641408  0.52035964  0.09127662    -0.19700
F706        F  0.16376865  0.70346344  0.43830833    -0.19800
F707        F  0.10973487  0.62822512  0.41094847    -0.20100
F708        F  0.19422324  0.66060493  0.40732847    -0.22800
C709        C  0.37771388  0.86526823  0.38872802    -0.05600
C710        C  0.34863470  0.87928275  0.41385847     0.00300
C711        C  0.31612015  0.89140965  0.39115966    -0.08200
C712        C  0.31393097  0.88595940  0.34734149    -0.05600
C713        C  0.34305076  0.87016181  0.32459139     0.00300
C714        C  0.38262428  0.87163837  0.34605195    -0.08100
C715        C  0.43675673  0.89975672  0.33001885     0.62200
H716        H  0.39927597  0.85030972  0.40123554     0.12900
H717        H  0.28570414  0.88923487  0.33060583     0.12900
C718        C  0.27762160  0.90248884  0.41074957     0.62500
F719        F  0.46115924  0.94743772  0.34829407    -0.22700
F720        F  0.44264856  0.91022900  0.28894947    -0.20000
F721        F  0.46032664  0.87301421  0.33952754    -0.19700
F722        F  0.29874361  0.93931084  0.44128498    -0.19800
F723        F  0.23706367  0.85735657  0.42628343    -0.20100
F724        F  0.25823475  0.92116796  0.38217163    -0.22800
C725        C  0.47283783  0.86871639  0.47533095    -0.05600
C726        C  0.47509529  0.85901004  0.01820806     0.00300
C727        C  0.43420294  0.85765939  0.04160364    -0.08200
C728        C  0.39158840  0.85204534  0.02076388    -0.05600
C729        C  0.39573285  0.87136881  0.47987305     0.00300
C730        C  0.44429062  0.88963037  0.46163587    -0.08100
C731        C  0.47309342  0.93732171  0.43527586     0.62200
H732        H  0.50297637  0.87237310  0.45539239     0.12900
H733        H  0.35820231  0.84307703  0.03873469     0.12900
C734        C  0.44164689  0.88241219  0.08290512     0.62500
F735        F  0.50849590  0.97564153  0.45890624    -0.22700
F736        F  0.44488962  0.95649270  0.42021567    -0.20000
F737        F  0.49865627  0.92866122  0.40426150    -0.19700
F738        F  0.49054291  0.92450866  0.08367640    -0.19800
F739        F  0.43089072  0.84682918  0.11331717    -0.20100
F740        F  0.41003036  0.90149229  0.08988197    -0.22800
C741        C  0.26312082  0.83585583  0.49845238    -0.05600
C742        C  0.29961514  0.82889520  0.47724476     0.00300
C743        C  0.28679974  0.77605190  0.97218446    -0.08200
C744        C  0.24209169  0.73691284  0.99075268    -0.05600
C745        C  0.20347204  0.74272085  0.00880569     0.00300
C746        C  0.21481340  0.79496806  0.01200368    -0.08100
C747        C  0.17938793  0.80995786  0.03223956     0.62200
H748        H  0.27178859  0.87484745  0.50290183     0.12900
H749        H  0.23814955  0.69994690  0.99160261     0.12900
C750        C  0.31700173  0.75639267  0.94794505     0.62500
F751        F  0.19680820  0.86125623  0.52849434    -0.22700
F752        F  0.17749890  0.80276131  0.07413551    -0.20000
F753        F  0.13176491  0.78270216  0.51543279    -0.19700
F754        F  0.36465519  0.77483283  0.96339168    -0.19800
F755        F  0.31973399  0.76794737  0.40694785    -0.20100
F756        F  0.29380540  0.70302656  0.94839684    -0.22800
In757      In  0.00703383  0.41386379  0.72964843     1.36900
C758        C  0.01000211  0.49846227  0.74647052     0.77800
O759        O  0.93005461  0.40041383  0.73202305    -0.60700
O760        O  0.93649389  0.34392486  0.76323498    -0.51600
C761        C  0.00816014  0.39834622  0.64761445     0.70400
O762        O  0.01068266  0.43669964  0.66523381    -0.46400
C763        C  0.10094609  0.46253470  0.76569559     0.75100
O764        O  0.01534703  0.48672607  0.71019702    -0.58300
O765        O  0.05970825  0.43960642  0.78587564    -0.48400
O766        O  0.00535342  0.46791513  0.77440040    -0.54700
C767        C  0.90888732  0.36312163  0.75641592     0.85300
O768        O  0.00501638  0.36440440  0.67253642    -0.56600
O769        O  0.09367074  0.44933316  0.72815426    -0.59900
In770      In  0.99077265  0.61825413  0.76485555     1.36900
C771        C  0.00466289  0.54145584  0.75452692     0.77800
O772        O  0.90545155  0.60083587  0.76237706    -0.60700
O773        O  0.93354399  0.57391047  0.71745943    -0.51600
C774        C  0.99706999  0.62810391  0.84688125     0.70400
O775        O  0.98818645  0.58828759  0.82712736    -0.46400
C776        C  0.08178379  0.67650590  0.72786532     0.75100
O777        O  0.99687396  0.55345319  0.78991164    -0.58300
O778        O  0.04531815  0.63551907  0.71448707    -0.48400
O779        O  0.00508651  0.56833046  0.72544193    -0.54700
C780        C  0.89438804  0.57007701  0.73218702     0.85300
O781        O  0.00235642  0.66497046  0.82452777    -0.56600
O782        O  0.06921022  0.69586691  0.75706566    -0.59900
In783      In  0.00989556  0.41223303  0.51907381     1.36900
C784        C  0.01717722  0.49797068  0.49729859     0.77800
O785        O  0.09288986  0.45986367  0.52469027    -0.60700
O786        O  0.06649278  0.42090862  0.46826946    -0.51600
C787        C  0.00907059  0.39808247  0.60147416     0.70400
O788        O  0.01454263  0.43713455  0.58343888    -0.46400
C789        C  0.91510292  0.36376204  0.48604749     0.75100
O790        O  0.00333704  0.47903679  0.53293250    -0.58300
O791        O  0.94018650  0.34115117  0.48422924    -0.48400
O792        O  0.03004573  0.47469959  0.97341240    -0.54700
C793        C  0.10421408  0.45556527  0.48818602     0.85300
O794        O  0.00417601  0.36276718  0.57687638    -0.56600
O795        O  0.93778501  0.40359478  0.50757068    -0.59900
In796      In  0.00918119  0.62210705  0.97329445     1.36900
C797        C  0.01230222  0.54004500  0.98526723     0.77800
O798        O  0.09126093  0.69682590  0.97939476    -0.60700
O799        O  0.06407742  0.63799896  0.02253766    -0.51600
C800        C  0.00130255  0.62860734  0.89232602     0.70400
O801        O  0.99691946  0.58960814  0.91037494    -0.46400
C802        C  0.91723636  0.58441061  0.01066783     0.75100
O803        O  0.02777190  0.56345219  0.95127872    -0.58300
O804        O  0.92687470  0.60946308  0.47804615    -0.48400
O805        O  0.98970865  0.55418760  0.50839326    -0.54700
C806        C  0.10235174  0.67760670  0.00895453     0.85300
O807        O  0.00967404  0.66587521  0.91603773    -0.56600
O808        O  0.95592780  0.58826799  0.02567558    -0.59900
C809        C  0.35239746  0.87775337  0.96349311    -0.02300
C810        C  0.15512798  0.69135787  0.52644121    -0.02300
C811        C  0.15601499  0.49436111  0.97163807    -0.02300
C812        C  0.33229537  0.47875079  0.52789553    -0.02300
C813        C  0.52587429  0.67574697  0.96051498    -0.02300
C814        C  0.52613904  0.86216139  0.53334601    -0.02300
C815        C  0.33353842  0.85764076  0.77849550    -0.02300
C816        C  0.13498975  0.69205833  0.71268195    -0.02300
C817        C  0.15195714  0.51121329  0.78206603    -0.02300
C818        C  0.33517372  0.50509463  0.71488290    -0.02300
C819        C  0.53571590  0.68915424  0.77585822    -0.02300
C820        C  0.52177099  0.86346880  0.71964814    -0.02300
In821      In  0.40800183  0.01609865  0.74221258     1.36900
C822        C  0.48820626  0.02291884  0.77229534     0.77800
O823        O  0.46409502  0.09948465  0.73777950    -0.60700
O824        O  0.41657427  0.07689664  0.79016805    -0.51600
C825        C  0.39925784  0.01766110  0.65921690     0.70400
O826        O  0.43484167  0.01923984  0.67876305    -0.46400
C827        C  0.35372768  0.91393630  0.76176915     0.75100
O828        O  0.48086383  0.02728979  0.73492774    -0.58300
O829        O  0.33558235  0.94263345  0.76947284    -0.48400
O830        O  0.45250169  0.01430299  0.79676028    -0.54700
C831        C  0.45592730  0.11323834  0.77215161     0.85300
O832        O  0.36506817  0.01648020  0.68251185    -0.56600
O833        O  0.39505192  0.93802930  0.74247980    -0.59900
In834      In  0.60570145  0.00330222  0.78886751     1.36900
C835        C  0.53295771  0.02206344  0.78289625     0.77800
O836        O  0.65729697  0.08925543  0.78987696    -0.60700
O837        O  0.64840103  0.05493503  0.73271602    -0.51600
C838        C  0.62663405  0.00032655  0.86825026     0.70400
O839        O  0.58549727  0.99244967  0.85414863    -0.46400
C840        C  0.55505359  0.91234828  0.74638838     0.75100
O841        O  0.54391785  0.01354084  0.81791637    -0.58300
O842        O  0.60302923  0.93646122  0.75066188    -0.48400
O843        O  0.56127508  0.02413777  0.75437993    -0.54700
C844        C  0.66166408  0.09639794  0.75181241     0.85300
O845        O  0.65884057  0.00576968  0.84075433    -0.56600
O846        O  0.53519844  0.93062621  0.76908352    -0.59900
In847      In  0.42381849  0.02062256  0.53150021     1.36900
C848        C  0.51173730  0.02614115  0.53548825     0.77800
O849        O  0.36298854  0.93351872  0.52433223    -0.60700
O850        O  0.39098430  0.97459876  0.46980474    -0.51600
C851        C  0.40199416  0.01701250  0.61306721     0.70400
O852        O  0.43693844  0.01289762  0.59694175    -0.46400
C853        C  0.46814631  0.11526003  0.49363267     0.75100
O854        O  0.50792116  0.06446660  0.54197023    -0.58300
O855        O  0.45872184  0.07392219  0.47641941    -0.48400
O856        O  0.47118354  0.98376098  0.03298738    -0.54700
C857        C  0.36583104  0.93009828  0.48563817     0.85300
O858        O  0.37407365  0.02147643  0.58681131    -0.56600
O859        O  0.44455333  0.10647964  0.52778929    -0.59900
In860      In  0.63005749  0.01478811  0.99560029     1.36900
C861        C  0.56007269  0.02962269  0.02651323     0.77800
O862        O  0.55868317  0.94469995  0.00120604    -0.60700
O863        O  0.61853101  0.93740676  0.51866210    -0.51600
C864        C  0.63317932  0.00566886  0.91361863     0.70400
O865        O  0.60074163  0.00971085  0.93416044    -0.46400
C866        C  0.68506640  0.10815190  0.02654623     0.75100
O867        O  0.58191628  0.04754753  0.99244788    -0.58300
O868        O  0.67644109  0.06865527  0.04712496    -0.48400
O869        O  0.57603058  0.00741355  0.54674749    -0.54700
C870        C  0.57042296  0.91467642  0.01616700     0.85300
O871        O  0.66809977  0.00720368  0.93522905    -0.56600
O872        O  0.68142923  0.09992343  0.98827512    -0.59900
C873        C  0.49414951  0.16811653  0.78863700    -0.02300
C874        C  0.47153995  0.34739528  0.72882864    -0.02300
C875        C  0.85590140  0.34691959  0.77636848    -0.02300
C876        C  0.67446837  0.14765213  0.73110114    -0.02300
C877        C  0.84053063  0.52849891  0.71448085    -0.02300
C878        C  0.66811295  0.53983942  0.79269655    -0.02300
C879        C  0.86305409  0.35049668  0.96502427    -0.02300
C880        C  0.69276213  0.15967313  0.54657771    -0.02300
C881        C  0.51174435  0.16866740  0.97826873    -0.02300
C882        C  0.48710322  0.34304554  0.54074876    -0.02300
C883        C  0.86483386  0.54196726  0.52809955    -0.02300
C884        C  0.67576394  0.53784523  0.97943010    -0.02300
In885      In  0.38587800  0.41139435  0.76925287     1.36900
C886        C  0.46839272  0.48591012  0.73416433     0.77800
O887        O  0.41287570  0.35390499  0.78002340    -0.60700
O888        O  0.40492940  0.36973479  0.71934411    -0.51600
C889        C  0.37958197  0.39603832  0.85384125     0.70400
O890        O  0.41580929  0.43371150  0.83455650    -0.46400
C891        C  0.34398668  0.46522634  0.73965140     0.75100
O892        O  0.45319193  0.48650647  0.77036883    -0.58300
O893        O  0.32294427  0.41621712  0.73405477    -0.48400
O894        O  0.44096421  0.44496233  0.71433252    -0.54700
C895        C  0.42583723  0.35346803  0.74314953     0.85300
O896        O  0.34330764  0.36561656  0.82994203    -0.56600
O897        O  0.37822922  0.48117864  0.76639989    -0.59900
In898      In  0.60839571  0.61566196  0.72386445     1.36900
C899        C  0.51605727  0.52958298  0.71927171     0.77800
O900        O  0.64848180  0.57202565  0.73056925    -0.60700
O901        O  0.65110849  0.61327479  0.78307836    -0.51600
C902        C  0.62740145  0.63730809  0.64465797     0.70400
O903        O  0.58811497  0.60086709  0.66082147    -0.46400
C904        C  0.57231584  0.67130802  0.76008721     0.75100
O905        O  0.55549784  0.52811600  0.71282069    -0.58300
O906        O  0.56733962  0.63007263  0.77346371    -0.48400
O907        O  0.52426889  0.57409547  0.72339358    -0.54700
C908        C  0.65834114  0.57877574  0.76849790     0.85300
O909        O  0.66198440  0.66661329  0.66990015    -0.56600
O910        O  0.60542544  0.69102347  0.73138961    -0.59900
In911      In  0.39788361  0.39479045  0.98559652     1.36900
C912        C  0.47834670  0.48144109  0.00698799     0.77800
O913        O  0.38018614  0.43703057  0.03283297    -0.60700
O914        O  0.32596025  0.40357744  0.98636130    -0.51600
C915        C  0.38240216  0.39104463  0.90049513     0.70400
O916        O  0.41535368  0.42863821  0.92111545    -0.46400
C917        C  0.44842951  0.35248208  0.01830227     0.75100
O918        O  0.47582236  0.45454985  0.97618768    -0.58300
O919        O  0.40154065  0.33443188  0.02774280    -0.48400
O920        O  0.43986916  0.46284325  0.52927507    -0.54700
C921        C  0.34334578  0.43577394  0.01589548     0.85300
O922        O  0.35545217  0.35163027  0.92327394    -0.56600
O923        O  0.46309163  0.38424984  0.98948671    -0.59900
In924      In  0.60745655  0.61911723  0.52104242     1.36900
C925        C  0.52275434  0.53210185  0.51347421     0.77800
O926        O  0.56934348  0.66607073  0.52006794    -0.60700
O927        O  0.59292432  0.65281375  0.46320393    -0.51600
C928        C  0.62662988  0.63965878  0.59962629     0.70400
O929        O  0.58478299  0.60827005  0.58356489    -0.46400
C930        C  0.65863165  0.57234071  0.49674355     0.75100
O931        O  0.53424328  0.55440965  0.54788999    -0.58300
O932        O  0.67374322  0.61865093  0.48610923    -0.48400
O933        O  0.55092412  0.55763095  0.98509372    -0.54700
C934        C  0.56626429  0.66752855  0.48148169     0.85300
O935        O  0.66273542  0.66695257  0.57430321    -0.56600
O936        O  0.62154407  0.55447534  0.52121624    -0.59900
C937        C  0.81725163  0.58831240  0.51310440    -0.05600
C938        C  0.81813300  0.54226647  0.50848591     0.00300
C939        C  0.77265062  0.50043478  0.99160422    -0.08200
C940        C  0.73910651  0.51107368  0.97198900    -0.05600
C941        C  0.73123502  0.55007908  0.98660815     0.00300
C942        C  0.77344247  0.59136504  0.50579910    -0.08100
C943        C  0.77574022  0.64078540  0.51929028     0.62200
H944        H  0.84977365  0.62093522  0.52587511     0.12900
H945        H  0.71056642  0.48112745  0.95253274     0.12900
C946        C  0.74734365  0.44168631  0.99810172     0.62500
F947        F  0.82172363  0.67593761  0.53726323    -0.22700
F948        F  0.73866662  0.63022656  0.54833959    -0.20000
F949        F  0.77046199  0.66504678  0.48571365    -0.19700
F950        F  0.77124390  0.42476134  0.02278544    -0.19800
F951        F  0.73899750  0.41731007  0.96042786    -0.20100
F952        F  0.70043795  0.42359682  0.01657854    -0.22800
C953        C  0.58451648  0.41671141  0.55130607    -0.05600
C954        C  0.54444747  0.38468540  0.52356235     0.00300
C955        C  0.56302999  0.39180846  0.98162901    -0.08200
C956        C  0.61158697  0.43605646  0.97143915    -0.05600
C957        C  0.63811707  0.47962428  0.99776433     0.00300
C958        C  0.62876712  0.46495602  0.53950485    -0.08100
C959        C  0.66602664  0.49839169  0.57316869     0.62200
H960        H  0.58006137  0.40529635  0.58308508     0.12900
H961        H  0.62711764  0.43859471  0.94116777     0.12900
C962        C  0.53552492  0.35347345  0.94619411     0.62500
F963        F  0.65175793  0.47469942  0.61114286    -0.22700
F964        F  0.66903276  0.54491944  0.57773824    -0.20000
F965        F  0.71367879  0.50736147  0.56442494    -0.19700
F966        F  0.49108547  0.35015223  0.93538473    -0.19800
F967        F  0.52468682  0.30527029  0.95612392    -0.20100
F968        F  0.56526637  0.36706264  0.91083846    -0.22800
C969        C  0.45685222  0.20768249  0.49467651    -0.05600
C970        C  0.50492408  0.21277398  0.99970442     0.00300
C971        C  0.53951092  0.25681106  0.02518001    -0.08200
C972        C  0.52083311  0.28410854  0.04693314    -0.05600
C973        C  0.48042871  0.28809819  0.53262196     0.00300
C974        C  0.44450537  0.24504594  0.50772269    -0.08100
C975        C  0.39327919  0.23594068  0.49457750     0.62200
H976        H  0.42914547  0.17467359  0.47729626     0.12900
H977        H  0.54532836  0.31285751  0.06936269     0.12900
C978        C  0.59756247  0.28809493  0.02596408     0.62500
F979        F  0.39969065  0.27266000  0.46636391    -0.22700
F980        F  0.36630630  0.23648590  0.52859590    -0.20000
F981        F  0.36349394  0.18830645  0.47568942    -0.19700
F982        F  0.61431972  0.33559424  0.00811299    -0.19800
F983        F  0.62170216  0.26712849  0.00567605    -0.20100
F984        F  0.61366735  0.29823353  0.06624106    -0.22800
C985        C  0.63552474  0.15970483  0.98782062    -0.05600
C986        C  0.64788827  0.16834508  0.53096257     0.00300
C987        C  0.61569463  0.18087279  0.55487259    -0.08200
C988        C  0.57064280  0.17417210  0.53672878    -0.05600
C989        C  0.55930101  0.16603363  0.99378412     0.00300
C990        C  0.58871014  0.14961393  0.97116770    -0.08100
C991        C  0.56966538  0.11367930  0.93360163     0.62200
H992        H  0.66227799  0.15864209  0.96692468     0.12900
H993        H  0.54464222  0.17922248  0.55576051     0.12900
C994        C  0.63407333  0.21831447  0.59161461     0.62500
F995        F  0.60285237  0.09790469  0.92289293    -0.22700
F996        F  0.56448147  0.13602836  0.89944492    -0.20000
F997        F  0.52380734  0.06955055  0.94201881    -0.19700
F998        F  0.66972410  0.26657457  0.57733427    -0.19800
F999        F  0.65551295  0.20731576  0.62290252    -0.20100
F1000       F  0.59479659  0.22100326  0.60991905    -0.22800
C1001       C  0.85892351  0.40793728  0.52325029    -0.05600
C1002       C  0.85488831  0.39753913  0.97997104     0.00300
C1003       C  0.84899995  0.43336432  0.95573329    -0.08200
C1004       C  0.85950182  0.48104958  0.97264367    -0.05600
C1005       C  0.86513254  0.49159247  0.51534966     0.00300
C1006       C  0.86957034  0.45560701  0.54072502    -0.08100
C1007       C  0.89099123  0.46615128  0.58421309     0.62200
H1008       H  0.85984393  0.38057632  0.54350187     0.12900
H1009       H  0.85911196  0.50916321  0.95263303     0.12900
C1010       C  0.82401910  0.42032423  0.91456780     0.62500
F1011       F  0.91807031  0.44212451  0.59048696    -0.22700
F1012       F  0.85193946  0.44636074  0.61288483    -0.20000
F1013       F  0.92481951  0.51797158  0.59117083    -0.19700
F1014       F  0.77956233  0.37266273  0.91633542    -0.19800
F1015       F  0.85752264  0.42141067  0.88676369    -0.20100
F1016       F  0.81129108  0.45541495  0.90142047    -0.22800
C1017       C  0.77778881  0.20472357  0.00344391    -0.05600
C1018       C  0.74401646  0.20847671  0.53102163     0.00300
C1019       C  0.75307564  0.25902287  0.53596085    -0.08200
C1020       C  0.77833410  0.29445222  0.50412039    -0.05600
C1021       C  0.81960727  0.29692828  0.98366566     0.00300
C1022       C  0.81720428  0.24808498  0.98156176    -0.08100
C1023       C  0.85092433  0.23560780  0.95565430     0.62200
H1024       H  0.77463149  0.16779544  0.99920632     0.12900
H1025       H  0.77260029  0.32654477  0.50318844     0.12900
C1026       C  0.77042707  0.28554216  0.57712375     0.62500
F1027       F  0.87660324  0.22122983  0.98158330    -0.22700
F1028       F  0.88609534  0.27503746  0.93108689    -0.20000
F1029       F  0.82058753  0.19439355  0.92986918    -0.19700
F1030       F  0.76437163  0.32755969  0.58009076    -0.19800
F1031       F  0.74489573  0.25266735  0.60906309    -0.20100
F1032       F  0.82154632  0.30339940  0.58089633    -0.22800
C1033       C  0.63424940  0.50448583  0.86628655    -0.05600
C1034       C  0.67162091  0.54588589  0.84157888     0.00300
C1035       C  0.71084430  0.58889466  0.86455048    -0.08200
C1036       C  0.71171952  0.58458981  0.90848965    -0.05600
C1037       C  0.67139463  0.54348031  0.93142218     0.00300
C1038       C  0.62809819  0.51038241  0.90818424    -0.08100
C1039       C  0.57478128  0.49312263  0.92238385     0.62200
H1040       H  0.60462498  0.46906828  0.85293164     0.12900
H1041       H  0.74488691  0.61321691  0.92487455     0.12900
C1042       C  0.75719723  0.63472931  0.84469277     0.62500
F1043       F  0.56406253  0.52938217  0.90966525    -0.22700
F1044       F  0.56879120  0.48978223  0.96402578    -0.20000
F1045       F  0.53993880  0.44540865  0.90602939    -0.19700
F1046       F  0.77891276  0.67674558  0.87127016    -0.19800
F1047       F  0.74533305  0.65049879  0.80921113    -0.20100
F1048       F  0.79295657  0.62171648  0.83566979    -0.22800
C1049       C  0.88657737  0.57938726  0.64599044    -0.05600
C1050       C  0.84328536  0.53569573  0.66499390     0.00300
C1051       C  0.80414722  0.50345313  0.63610449    -0.08200
C1052       C  0.81454841  0.50932145  0.59360950    -0.05600
C1053       C  0.85975785  0.54811012  0.57571860     0.00300
C1054       C  0.89349587  0.58892018  0.60299477    -0.08100
C1055       C  0.93619972  0.64347069  0.59041630     0.62200
H1056       H  0.91504408  0.61003432  0.66456011     0.12900
H1057       H  0.78624834  0.48210665  0.57319412     0.12900
C1058       C  0.75079546  0.46216503  0.64740713     0.62500
F1059       F  0.94316142  0.67928311  0.62045941    -0.22700
F1060       F  0.92637881  0.66095508  0.55496034    -0.20000
F1061       F  0.98127333  0.64486224  0.58561505    -0.19700
F1062       F  0.72968890  0.48322789  0.67215941    -0.19800
F1063       F  0.75263552  0.42259060  0.66498506    -0.20100
F1064       F  0.71876916  0.44051143  0.61404030    -0.22800
C1065       C  0.74625713  0.57502142  0.74339267    -0.05600
C1066       C  0.71861788  0.54245304  0.77703423     0.00300
C1067       C  0.74088705  0.51544024  0.79514692    -0.08200
C1068       C  0.78445564  0.51939120  0.77623308    -0.05600
C1069       C  0.80190398  0.54012289  0.73662365     0.00300
C1070       C  0.78750379  0.57561562  0.72344378    -0.08100
C1071       C  0.81665715  0.61785860  0.69137857     0.62200
H1072       H  0.73596414  0.60119871  0.73176462     0.12900
H1073       H  0.80286921  0.50186789  0.79094982     0.12900
C1074       C  0.72047894  0.48110041  0.83343863     0.62500
F1075       F  0.80456481  0.65581804  0.69328934    -0.22700
F1076       F  0.80524266  0.59755981  0.65205297    -0.20000
F1077       F  0.86812437  0.64266045  0.69849435    -0.19700
F1078       F  0.66932730  0.44502797  0.82931574    -0.19800
F1079       F  0.72943905  0.51027051  0.86848330    -0.20100
F1080       F  0.74438760  0.45404945  0.84015779    -0.22800
C1081       C  0.63978819  0.11715922  0.61149705    -0.05600
C1082       C  0.68891410  0.14785564  0.59408388     0.00300
C1083       C  0.72870011  0.15394277  0.62012344    -0.08200
C1084       C  0.71950345  0.14802801  0.66325529    -0.05600
C1085       C  0.67311683  0.13731598  0.68226034     0.00300
C1086       C  0.63054871  0.11491494  0.65450397    -0.08100
C1087       C  0.57491974  0.09068256  0.66524135     0.62200
H1088       H  0.60743403  0.09997218  0.59120508     0.12900
H1089       H  0.75034270  0.15471486  0.68280996     0.12900
C1090       C  0.77975105  0.16398648  0.60411104     0.62500
F1091       F  0.55666887  0.11958937  0.64856505    -0.22700
F1092       F  0.56640944  0.08765788  0.70632973    -0.20000
F1093       F  0.54742189  0.04117900  0.64908882    -0.19700
F1094       F  0.80965822  0.21385250  0.59010291    -0.19800
F1095       F  0.77282851  0.12992902  0.57280136    -0.20100
F1096       F  0.80677852  0.15737316  0.63463020    -0.22800
C1097       C  0.90295342  0.36675925  0.84581019    -0.05600
C1098       C  0.85591755  0.34328486  0.82545590     0.00300
C1099       C  0.81169969  0.31868048  0.85226231    -0.08200
C1100       C  0.81801855  0.31412902  0.89519897    -0.05600
C1101       C  0.86456753  0.34554021  0.91590033     0.00300
C1102       C  0.90810794  0.37360923  0.88907314    -0.08100
C1103       C  0.95895019  0.41690894  0.90360142     0.62200
H1104       H  0.93724809  0.38619509  0.82762345     0.12900
H1105       H  0.78447354  0.29210035  0.91407458     0.12900
C1106       C  0.75856378  0.30530057  0.83978568     0.62500
F1107       F  0.98920016  0.44886500  0.87197991    -0.22700
F1108       F  0.98488922  0.39644459  0.92108755    -0.20000
F1109       F  0.95135193  0.44763541  0.93043443    -0.19700
F1110       F  0.72303147  0.27995401  0.87082535    -0.19800
F1111       F  0.74073373  0.27401060  0.80575919    -0.20100
F1112       F  0.75934977  0.35027890  0.83248589    -0.22800
C1113       C  0.79449485  0.38045251  0.75353561    -0.05600
C1114       C  0.84288338  0.38975821  0.76456969     0.00300
C1115       C  0.87994305  0.44287030  0.76448496    -0.08200
C1116       C  0.87633082  0.46954039  0.73076295    -0.05600
C1117       C  0.83178232  0.47176316  0.72693633     0.00300
C1118       C  0.78710005  0.42169577  0.74114256    -0.08100
C1119       C  0.73087141  0.40338585  0.74456778     0.62200
H1120       H  0.76173724  0.34202321  0.75720822     0.12900
H1121       H  0.90882338  0.49021537  0.71068087     0.12900
C1122       C  0.88462843  0.46894141  0.80558402     0.62500
F1123       F  0.70299887  0.36006850  0.71997988    -0.22700
F1124       F  0.71935657  0.43909303  0.73376576    -0.20000
F1125       F  0.71407301  0.38839182  0.78447701    -0.19700
F1126       F  0.92019155  0.46713694  0.82951232    -0.19800
F1127       F  0.83777122  0.44556601  0.82483349    -0.20100
F1128       F  0.89858809  0.51960793  0.80165459    -0.22800
C1129       C  0.81055554  0.24773611  0.77614521    -0.05600
C1130       C  0.81860430  0.29323900  0.75735376     0.00300
C1131       C  0.78992318  0.28595972  0.72165380    -0.08200
C1132       C  0.74295161  0.23999771  0.71771156    -0.05600
C1133       C  0.72916400  0.19513940  0.74066359     0.00300
C1134       C  0.76913031  0.19795450  0.76542778    -0.08100
C1135       C  0.77290193  0.15213341  0.77911983     0.62200
H1136       H  0.83690414  0.25124693  0.79953664     0.12900
H1137       H  0.71885141  0.23770926  0.69293189     0.12900
C1138       C  0.81015509  0.31890057  0.68327006     0.62500
F1139       F  0.82317552  0.16727139  0.78510034    -0.22700
F1140       F  0.75478062  0.11375634  0.74947805    -0.20000
F1141       F  0.74760773  0.13266528  0.81610778    -0.19700
F1142       F  0.82135051  0.29151778  0.65569949    -0.19800
F1143       F  0.85388239  0.36607613  0.68796621    -0.20100
F1144       F  0.77376927  0.32734846  0.66732949    -0.22800
C1145       C  0.50099514  0.39272014  0.65725245    -0.05600
C1146       C  0.46847402  0.34677376  0.67920637     0.00300
C1147       C  0.42949652  0.30710367  0.65330137    -0.08200
C1148       C  0.43956386  0.30631511  0.61036753    -0.05600
C1149       C  0.47931221  0.34916186  0.58916903     0.00300
C1150       C  0.50182341  0.39583961  0.61365239    -0.08100
C1151       C  0.51969278  0.44936253  0.59767970     0.62200
H1152       H  0.52244939  0.42856593  0.67418568     0.12900
H1153       H  0.41344758  0.27273696  0.59253795     0.12900
C1154       C  0.37483365  0.26844778  0.66672465     0.62500
F1155       F  0.48523570  0.46303074  0.61000815    -0.22700
F1156       F  0.52315407  0.45186902  0.55587246    -0.20000
F1157       F  0.56671815  0.48504880  0.61363863    -0.19700
F1158       F  0.36790263  0.26156336  0.70872733    -0.19800
F1159       F  0.35825865  0.22062237  0.64907844    -0.20100
F1160       F  0.34414413  0.28560716  0.65264387    -0.22800
C1161       C  0.52472469  0.43510850  0.77058541    -0.05600
C1162       C  0.52480732  0.39744940  0.74421373     0.00300
C1163       C  0.57511919  0.40872640  0.73379335    -0.08200
C1164       C  0.61909517  0.45306502  0.75075486    -0.05600
C1165       C  0.61764579  0.48796261  0.77912024     0.00300
C1166       C  0.56782031  0.47846525  0.78829919    -0.08100
C1167       C  0.55522752  0.51139508  0.81693296     0.62200
H1168       H  0.48970712  0.43052437  0.78023860     0.12900
H1169       H  0.65564653  0.46109922  0.74011143     0.12900
C1170       C  0.58745539  0.37826701  0.70368842     0.62500
F1171       F  0.51754474  0.47936872  0.84442733    -0.22700
F1172       F  0.53784255  0.53594478  0.79501406    -0.20000
F1173       F  0.59346737  0.55165098  0.83815252    -0.19700
F1174       F  0.54638293  0.33235254  0.69053946    -0.19800
F1175       F  0.62072796  0.36754130  0.72217573    -0.20100
F1176       F  0.61142781  0.40832935  0.66953332    -0.22800
C1177       C  0.54101319  0.20454591  0.85812729    -0.05600
C1178       C  0.49425941  0.17062781  0.83850967     0.00300
C1179       C  0.45193471  0.14611983  0.86651581    -0.08200
C1180       C  0.46038158  0.14313681  0.90928939    -0.05600
C1181       C  0.50836156  0.17374313  0.92894972     0.00300
C1182       C  0.54813125  0.21075534  0.90152288    -0.08100
C1183       C  0.59930988  0.25625687  0.91495611     0.62200
H1184       H  0.57303549  0.22851897  0.83819930     0.12900
H1185       H  0.42694779  0.11947766  0.92803042     0.12900
C1186       C  0.39762226  0.12871980  0.85570134     0.62500
F1187       F  0.62810673  0.28767543  0.88242136    -0.22700
F1188       F  0.62841403  0.24022331  0.93347949    -0.20000
F1189       F  0.59151442  0.28705283  0.94081112    -0.19700
F1190       F  0.36697459  0.07561868  0.85975641    -0.19800
F1191       F  0.39311261  0.14308817  0.81669716    -0.20100
F1192       F  0.38006236  0.15163679  0.88269816    -0.22800
C1193       C  0.56525151  0.14719922  0.79585844    -0.05600
C1194       C  0.54784722  0.17457934  0.77321395     0.00300
C1195       C  0.57887702  0.19993764  0.73702706    -0.08200
C1196       C  0.61808627  0.19030181  0.72408088    -0.05600
C1197       C  0.63521726  0.16393519  0.74843157     0.00300
C1198       C  0.61331159  0.15303322  0.78897031    -0.08100
C1199       C  0.64192045  0.15901191  0.82816190     0.62200
H1200       H  0.54461740  0.12663803  0.82330662     0.12900
H1201       H  0.63564879  0.20375107  0.69439869     0.12900
C1202       C  0.57458089  0.23942383  0.71267806     0.62500
F1203       F  0.63998238  0.19486991  0.85329077    -0.22700
F1204       F  0.69241304  0.17667697  0.82180609    -0.20000
F1205       F  0.61918284  0.11233459  0.84839264    -0.19700
F1206       F  0.57719000  0.27579232  0.73953939    -0.19800
F1207       F  0.52999754  0.21636861  0.69102235    -0.20100
F1208       F  0.61415981  0.26543036  0.68469900    -0.22800
C1209       C  0.50263190  0.25735359  0.79379729    -0.05600
C1210       C  0.48209835  0.21016421  0.77166572     0.00300
C1211       C  0.44955188  0.20575930  0.73808652    -0.08200
C1212       C  0.45184052  0.25133941  0.72440216    -0.05600
C1213       C  0.46889142  0.29704406  0.74808310     0.00300
C1214       C  0.49054483  0.29574387  0.78680338    -0.08100
C1215       C  0.50310917  0.33212845  0.82329886     0.62200
H1216       H  0.52767969  0.26483880  0.81899410     0.12900
H1217       H  0.44080505  0.24980020  0.69347264     0.12900
C1218       C  0.41282716  0.15647912  0.71383537     0.62500
F1219       F  0.48903102  0.30360968  0.85935077    -0.22700
F1220       F  0.47737589  0.35743583  0.82397563    -0.20000
F1221       F  0.55483783  0.36753082  0.82415136    -0.19700
F1222       F  0.37990876  0.11702566  0.73976470    -0.19800
F1223       F  0.43860585  0.14118424  0.68835374    -0.20100
F1224       F  0.38166877  0.16392577  0.68848368    -0.22800
C1225       C  0.53115145  0.81067023  0.77605829    -0.05600
C1226       C  0.53633059  0.82338011  0.73410783     0.00300
C1227       C  0.56172070  0.80308896  0.70945993    -0.08200
C1228       C  0.55940248  0.75848934  0.72311406    -0.05600
C1229       C  0.55431976  0.74649517  0.76491937     0.00300
C1230       C  0.55262178  0.78352934  0.79181486    -0.08100
C1231       C  0.59437888  0.81625993  0.82254243     0.62200
H1232       H  0.52143298  0.83182868  0.79752129     0.12900
H1233       H  0.56687404  0.73623072  0.70121383     0.12900
C1234       C  0.60537912  0.83400817  0.67929306     0.62500
F1235       F  0.60969463  0.86817524  0.82064391    -0.22700
F1236       F  0.63752171  0.81472723  0.81439747    -0.20000
F1237       F  0.57628169  0.79986372  0.86185752    -0.19700
F1238       F  0.63174078  0.88509386  0.69039004    -0.19800
F1239       F  0.58820366  0.82766718  0.63958342    -0.20100
F1240       F  0.64037985  0.81845255  0.67984247    -0.22800
C1241       C  0.39196795  0.58447612  0.76242929    -0.05600
C1242       C  0.38743691  0.56082725  0.72336489     0.00300
C1243       C  0.43406420  0.58731496  0.69885747    -0.08200
C1244       C  0.47823729  0.63287059  0.71473441    -0.05600
C1245       C  0.48101156  0.65462444  0.75409531     0.00300
C1246       C  0.43268444  0.63415491  0.77382762    -0.08100
C1247       C  0.41955313  0.66228777  0.80541315     0.62200
H1248       H  0.36098062  0.56516776  0.78441429     0.12900
H1249       H  0.51315115  0.65009480  0.69722795     0.12900
C1250       C  0.44214276  0.56721523  0.65807682     0.62500
F1251       F  0.38079026  0.66607595  0.78948253    -0.22700
F1252       F  0.45908233  0.71127395  0.81364480    -0.20000
F1253       F  0.40217883  0.63508988  0.84186428    -0.19700
F1254       F  0.41231163  0.56905054  0.62798735    -0.19800
F1255       F  0.43209782  0.51774718  0.66296000    -0.20100
F1256       F  0.49162411  0.59632639  0.64343343    -0.22800
C1257       C  0.19648287  0.46450534  0.75685561    -0.05600
C1258       C  0.19853083  0.51231728  0.75955865     0.00300
C1259       C  0.24567795  0.55684051  0.74559288    -0.08200
C1260       C  0.28797092  0.55108065  0.74087736    -0.05600
C1261       C  0.28566345  0.50363631  0.73344234     0.00300
C1262       C  0.23564136  0.45864802  0.73913671    -0.08100
C1263       C  0.22078510  0.40352538  0.72875875     0.62200
H1264       H  0.16232504  0.43005880  0.76761377     0.12900
H1265       H  0.32295315  0.58613949  0.73624671     0.12900
C1266       C  0.25517593  0.60929977  0.72926351     0.62500
F1267       F  0.16876255  0.37194329  0.72353370    -0.22700
F1268       F  0.23420253  0.38329326  0.76060070    -0.20000
F1269       F  0.24260415  0.40111492  0.69227005    -0.19700
F1270       F  0.30626649  0.64624623  0.72445385    -0.19800
F1271       F  0.23690952  0.63247820  0.75416733    -0.20100
F1272       F  0.23465046  0.60248727  0.69052824    -0.22800
C1273       C  0.14232404  0.56265237  0.72442053    -0.05600
C1274       C  0.14408877  0.55659739  0.76714044     0.00300
C1275       C  0.12906843  0.58638508  0.79056046    -0.08200
C1276       C  0.13106335  0.63038954  0.77232703    -0.05600
C1277       C  0.13750069  0.64218569  0.72915516     0.00300
C1278       C  0.13371579  0.59944354  0.70547573    -0.08100
C1279       C  0.11822516  0.58588671  0.66099802     0.62200
H1280       H  0.14723459  0.53667895  0.70465479     0.12900
H1281       H  0.12054670  0.65162481  0.79211961     0.12900
C1282       C  0.10360003  0.56881235  0.83225006     0.62500
F1283       F  0.09274349  0.53305920  0.65433110    -0.22700
F1284       F  0.16210466  0.60717498  0.63822731    -0.20000
F1285       F  0.08550340  0.60058509  0.64786209    -0.19700
F1286       F  0.13946268  0.58663545  0.86192954    -0.19800
F1287       F  0.07401983  0.51584173  0.83470466    -0.20100
F1288       F  0.07257097  0.58775429  0.84078304    -0.22800
C1289       C  0.43008310  0.80882604  0.75839639    -0.05600
C1290       C  0.46226973  0.84628373  0.72807201     0.00300
C1291       C  0.43677738  0.86861237  0.70731445    -0.08200
C1292       C  0.38512586  0.85088737  0.71627531    -0.05600
C1293       C  0.36541168  0.83451801  0.75616282     0.00300
C1294       C  0.38342810  0.80389322  0.77344984    -0.08100
C1295       C  0.35148865  0.76079235  0.80305877     0.62200
H1296       H  0.44062085  0.78352983  0.77174416     0.12900
H1297       H  0.36575681  0.86318017  0.69667966     0.12900
C1298       C  0.46358139  0.92024233  0.68564956     0.62500
F1299       F  0.34099312  0.71506370  0.78556426    -0.22700
F1300       F  0.30544968  0.75553812  0.81046018    -0.20000
F1301       F  0.37677584  0.76833106  0.83971341    -0.19700
F1302       F  0.49355346  0.92350164  0.65462503    -0.19800
F1303       F  0.49294997  0.95647677  0.71347295    -0.20100
F1304       F  0.43112850  0.93357565  0.66900520    -0.22800
C1305       C  0.18444415  0.75165213  0.77368966    -0.05600
C1306       C  0.17838771  0.74630185  0.73110385     0.00300
C1307       C  0.21715978  0.79072794  0.70865574    -0.08200
C1308       C  0.26506588  0.82151944  0.72623048    -0.05600
C1309       C  0.27572329  0.81938271  0.76773792     0.00300
C1310       C  0.23187126  0.78365117  0.79307466    -0.08100
C1311       C  0.22686290  0.77293508  0.83948116     0.62200
H1312       H  0.15126263  0.72979943  0.79274725     0.12900
H1313       H  0.29374868  0.85197796  0.70722008     0.12900
C1314       C  0.21105859  0.81654803  0.67081323     0.62500
F1315       F  0.19669883  0.72017487  0.84624763    -0.22700
F1316       F  0.20318917  0.79624346  0.85772704    -0.20000
F1317       F  0.27065013  0.78778070  0.85978825    -0.19700
F1318       F  0.16189291  0.79893387  0.66123492    -0.19800
F1319       F  0.23605679  0.81130191  0.63737394    -0.20100
F1320       F  0.23277602  0.86907886  0.67806659    -0.22800
C1321       C  0.56355084  0.90599854  0.60361987    -0.05600
C1322       C  0.52822822  0.86029954  0.58202182     0.02700
C1323       C  0.49585282  0.81596129  0.60696850    -0.08200
C1324       C  0.49696763  0.82187367  0.65027242    -0.05600
C1325       C  0.53084686  0.86816830  0.67165230     0.00300
C1326       C  0.56749058  0.91159123  0.64685577    -0.08100
C1327       C  0.60537173  0.96676767  0.66243309     0.62200
H1328       H  0.58851078  0.93974329  0.58622700     0.12900
H1329       H  0.47083016  0.78885741  0.66884615     0.12900
C1330       C  0.45863474  0.76210296  0.58990867     0.62500
F1331       F  0.62771170  0.00268441  0.63098308    -0.22700
F1332       F  0.64518113  0.96974000  0.68343817    -0.20000
F1333       F  0.58067478  0.98385777  0.68679365    -0.19700
F1334       F  0.48508261  0.74128284  0.57280606    -0.19800
F1335       F  0.42719789  0.76378563  0.56108588    -0.20100
F1336       F  0.42733016  0.72805867  0.62024679    -0.22800
C1337       C  0.49013401  0.64670495  0.88652018    -0.05600
C1338       C  0.53232918  0.68031065  0.91190215     0.00300
C1339       C  0.57936186  0.71414947  0.89021081    -0.08200
C1340       C  0.57953245  0.71119733  0.84638828    -0.05600
C1341       C  0.53515064  0.68086378  0.82318519     0.00300
C1342       C  0.49563929  0.63896660  0.84451199    -0.08100
C1343       C  0.46901091  0.58303672  0.82814069     0.62200
H1344       H  0.45361663  0.62113822  0.90009736     0.12900
H1345       H  0.61453465  0.73325033  0.82935102     0.12900
C1346       C  0.62803543  0.75796246  0.91029035     0.62500
F1347       F  0.49058786  0.55790370  0.84508168    -0.22700
F1348       F  0.47428141  0.57756990  0.78720240    -0.20000
F1349       F  0.41745481  0.55693134  0.83670422    -0.19700
F1350       F  0.64773802  0.74080012  0.93931165    -0.19800
F1351       F  0.61870799  0.79351599  0.92825242    -0.20100
F1352       F  0.66654424  0.78464159  0.88160488    -0.22800
C1353       C  0.49106977  0.77922220  0.98893580    -0.05600
C1354       C  0.53104462  0.81678516  0.51377994     0.00300
C1355       C  0.57176957  0.80726683  0.51963899    -0.08200
C1356       C  0.56831898  0.76271050  0.50173285    -0.05600
C1357       C  0.52876704  0.72690088  0.97572800     0.00300
C1358       C  0.49152872  0.73990713  0.96632456    -0.08100
C1359       C  0.45259480  0.71566838  0.93178658     0.62200
H1360       H  0.45684216  0.77973353  0.98698644     0.12900
H1361       H  0.59963471  0.75722181  0.50693863     0.12900
C1362       C  0.62032974  0.83926989  0.54430777     0.62500
F1363       F  0.42085811  0.73503760  0.92981092    -0.22700
F1364       F  0.42139071  0.66319396  0.93677439    -0.20000
F1365       F  0.47781860  0.72734988  0.89445187    -0.19700
F1366       F  0.62296735  0.87838065  0.56729267    -0.19800
F1367       F  0.66138049  0.86056082  0.51737504    -0.20100
F1368       F  0.62557429  0.80736243  0.57137983    -0.22800
C1369       C  0.30690404  0.50490902  0.59474284    -0.05600
C1370       C  0.32346518  0.47481971  0.57686746     0.00300
C1371       C  0.32584949  0.44038437  0.60580484    -0.08200
C1372       C  0.33407347  0.45448375  0.64805318    -0.05600
C1373       C  0.32664116  0.49292588  0.66619401     0.00300
C1374       C  0.30928570  0.51640676  0.63709614    -0.08100
C1375       C  0.29235484  0.55365273  0.64741630     0.62200
H1376       H  0.28783930  0.51666266  0.57483747     0.12900
H1377       H  0.34499234  0.43271519  0.66645008     0.12900
C1378       C  0.30539673  0.38293593  0.59799354     0.62500
F1379       F  0.28429056  0.57516125  0.61346406    -0.22700
F1380       F  0.32992889  0.59511952  0.66876760    -0.20000
F1381       F  0.24597028  0.52681403  0.66717442    -0.19700
F1382       F  0.34492108  0.37426982  0.59376457    -0.19800
F1383       F  0.27412170  0.36394411  0.56413204    -0.20100
F1384       F  0.27580377  0.35385464  0.63118507    -0.22800
C1385       C  0.44568723  0.62945140  0.50910020    -0.05600
C1386       C  0.47512572  0.62527212  0.97699200     0.00300
C1387       C  0.45936307  0.57328155  0.96621228    -0.08200
C1388       C  0.41558210  0.53138656  0.98436888    -0.05600
C1389       C  0.38240613  0.53430856  0.51365846     0.00300
C1390       C  0.39696552  0.58769470  0.52199209    -0.08100
C1391       C  0.36441869  0.60674528  0.54087928     0.62200
H1392       H  0.45888314  0.66679766  0.52269571     0.12900
H1393       H  0.40489830  0.49504344  0.97057903     0.12900
C1394       C  0.47670331  0.55703325  0.92853136     0.62500
F1395       F  0.37967324  0.65618543  0.52757082    -0.22700
F1396       F  0.37013626  0.60964644  0.58292518    -0.20000
F1397       F  0.31462206  0.57719973  0.52921635    -0.19700
F1398       F  0.48137742  0.51662999  0.93376013    -0.19800
F1399       F  0.52363766  0.59255648  0.91292216    -0.20100
F1400       F  0.43689991  0.53842341  0.90185770    -0.22800
C1401       C  0.19178870  0.54029870  0.90104725    -0.05600
C1402       C  0.15768795  0.49348197  0.92152925     0.00300
C1403       C  0.13366755  0.45004610  0.89394439    -0.08200
C1404       C  0.13138806  0.45820164  0.85085358    -0.05600
C1405       C  0.15948404  0.50731245  0.83100424     0.00300
C1406       C  0.19696886  0.54752404  0.85770512    -0.08100
C1407       C  0.24217566  0.59971929  0.84406798     0.62200
H1408       H  0.21505393  0.57338846  0.92027779     0.12900
H1409       H  0.11056245  0.42393444  0.83204065     0.12900
C1410       C  0.11553534  0.39472161  0.90566144     0.62500
F1411       F  0.27269174  0.62915782  0.87648766    -0.22700
F1412       F  0.22601529  0.62913806  0.82592224    -0.20000
F1413       F  0.27368717  0.59266418  0.81856967    -0.19700
F1414       F  0.06327424  0.36435771  0.90230163    -0.19800
F1415       F  0.12952277  0.39051064  0.94460896    -0.20100
F1416       F  0.13718330  0.37545375  0.87912174    -0.22800
C1417       C  0.23552772  0.43758637  0.52299666    -0.05600
C1418       C  0.28349561  0.46934969  0.50480021     0.00300
C1419       C  0.28413534  0.49898423  0.97052949    -0.08200
C1420       C  0.24614880  0.51096619  0.96771878    -0.05600
C1421       C  0.19772846  0.48181319  0.98685709     0.00300
C1422       C  0.19204588  0.44059496  0.51405700    -0.08100
C1423       C  0.14450242  0.40266735  0.53956233     0.62200
H1424       H  0.23356340  0.41234498  0.54701290     0.12900
H1425       H  0.25496911  0.54211791  0.94746311     0.12900
C1426       C  0.31687391  0.50938543  0.93230347     0.62500
F1427       F  0.10229410  0.37362867  0.51552097    -0.22700
F1428       F  0.13499274  0.42897711  0.56957978    -0.20000
F1429       F  0.15061534  0.36662809  0.56035079    -0.19700
F1430       F  0.33280798  0.47468060  0.92897074    -0.19800
F1431       F  0.35800016  0.55941380  0.93267381    -0.20100
F1432       F  0.28899140  0.50318883  0.89724478    -0.22800
C1433       C  0.11162103  0.69709019  0.59437306    -0.05600
C1434       C  0.15391242  0.69758085  0.57553609     0.00300
C1435       C  0.19389430  0.70703670  0.60351109    -0.08200
C1436       C  0.18404872  0.70332958  0.64660262    -0.05600
C1437       C  0.13966063  0.69771296  0.66461583     0.00300
C1438       C  0.10517036  0.70072113  0.63715553    -0.08100
C1439       C  0.06414075  0.71291813  0.64961261     0.62200
H1440       H  0.08395446  0.69819607  0.57542400     0.12900
H1441       H  0.21204480  0.70548951  0.66759876     0.12900
C1442       C  0.24846779  0.72505031  0.59045242     0.62500
F1443       F  0.05780766  0.74032430  0.61878703    -0.22700
F1444       F  0.07585477  0.74348243  0.68439201    -0.20000
F1445       F  0.01824175  0.66769146  0.65595761    -0.19700
F1446       F  0.25040618  0.69138720  0.56303464    -0.19800
F1447       F  0.27830733  0.72921238  0.62352000    -0.20100
F1448       F  0.27108361  0.77371144  0.57335665    -0.22800
C1449       C  0.15858396  0.60750586  0.54010541    -0.05600
C1450       C  0.15530260  0.64034696  0.51193928     0.00300
C1451       C  0.15048381  0.62359324  0.97007520    -0.08200
C1452       C  0.14542987  0.57490134  0.96128040    -0.05600
C1453       C  0.16200928  0.54907765  0.98766217     0.00300
C1454       C  0.16957243  0.56842679  0.52923035    -0.08100
C1455       C  0.18702657  0.55129757  0.56583307     0.62200
H1456       H  0.15656207  0.61521740  0.57177257     0.12900
H1457       H  0.12891784  0.55782156  0.93205695     0.12900
C1458       C  0.15348326  0.65442148  0.93201839     0.62500
F1459       F  0.22080102  0.59448428  0.58834914    -0.22700
F1460       F  0.21237042  0.52716679  0.55555855    -0.20000
F1461       F  0.14598350  0.51951941  0.59092388    -0.19700
F1462       F  0.16264547  0.70323016  0.93835806    -0.19800
F1463       F  0.10860956  0.62794482  0.91089794    -0.20100
F1464       F  0.19308469  0.66037841  0.90750904    -0.22800
C1465       C  0.37816766  0.86551526  0.88913770    -0.05600
C1466       C  0.34941351  0.87976115  0.91444251     0.00300
C1467       C  0.31749261  0.89282819  0.89187634    -0.08200
C1468       C  0.31454172  0.88661570  0.84805014    -0.05600
C1469       C  0.34326868  0.87035266  0.82517031     0.00300
C1470       C  0.38302984  0.87212137  0.84650520    -0.08100
C1471       C  0.43706131  0.90011971  0.83022323     0.62200
H1472       H  0.39956779  0.85025904  0.90145748     0.12900
H1473       H  0.28628802  0.89007695  0.83151644     0.12900
C1474       C  0.28041441  0.90594749  0.91154259     0.62500
F1475       F  0.46194938  0.94761606  0.84877654    -0.22700
F1476       F  0.44265448  0.91103467  0.78921707    -0.20000
F1477       F  0.46037096  0.87295315  0.83910408    -0.19700
F1478       F  0.30187772  0.94140033  0.94296671    -0.19800
F1479       F  0.23806200  0.86142034  0.92597135    -0.20100
F1480       F  0.26391525  0.92768024  0.88314996    -0.22800
C1481       C  0.47312804  0.86790934  0.97563433    -0.05600
C1482       C  0.47487279  0.85996311  0.51797013     0.00300
C1483       C  0.43396809  0.85864762  0.54130529    -0.08200
C1484       C  0.39136471  0.85297205  0.52044116    -0.05600
C1485       C  0.39603366  0.87062590  0.98024442     0.00300
C1486       C  0.44460780  0.88886207  0.96201625    -0.08100
C1487       C  0.47353184  0.93646052  0.93560120     0.62200
H1488       H  0.50334358  0.87168440  0.95572588     0.12900
H1489       H  0.35789965  0.84381602  0.53836544     0.12900
C1490       C  0.44105787  0.88283899  0.58279761     0.62500
F1491       F  0.50913743  0.97461741  0.95918856    -0.22700
F1492       F  0.44570843  0.95608915  0.92064383    -0.20000
F1493       F  0.49867535  0.92738306  0.90447558    -0.19700
F1494       F  0.48958558  0.92561395  0.58363507    -0.19800
F1495       F  0.43113124  0.84708360  0.61284002    -0.20100
F1496       F  0.40858713  0.90079003  0.59027679    -0.22800
C1497       C  0.26323795  0.83617463  0.99811707    -0.05600
C1498       C  0.29987983  0.82897439  0.97745099     0.00300
C1499       C  0.28695363  0.77609081  0.47208872    -0.08200
C1500       C  0.24247015  0.73681283  0.49083753    -0.05600
C1501       C  0.20368454  0.74232295  0.50898030     0.00300
C1502       C  0.21488565  0.79450528  0.51248576    -0.08100
C1503       C  0.17921776  0.80914893  0.53277393     0.62200
H1504       H  0.27214031  0.87524191  0.00263814     0.12900
H1505       H  0.23873954  0.69994604  0.49164538     0.12900
C1506       C  0.31741368  0.75671501  0.44782748     0.62500
F1507       F  0.19589243  0.86149484  0.02580401    -0.22700
F1508       F  0.17512009  0.79929987  0.57433056    -0.20000
F1509       F  0.13109689  0.78180115  0.01664021    -0.19700
F1510       F  0.36543312  0.77614923  0.46277919    -0.19800
F1511       F  0.32014220  0.76846224  0.90720422    -0.20100
F1512       F  0.29502953  0.70346311  0.44895313    -0.22800
loop_ 
_geom_bond_atom_site_label_1 
_geom_bond_atom_site_label_2 
_geom_bond_distance 
_geom_bond_site_symmetry_2 
_ccdc_geom_bond_type 
In1           O3   2.186   1_455  S
In1           O4   2.359   1_455  S
In1          O12   2.353       .  S
In1           O6   2.187       .  S
In1           O8   2.185       .  S
In1           O9   2.309       .  S
In1          O10   2.204       .  S
In1          O13   2.294       .  S
C2            O8   1.260       .  A
C2           O10   1.255       .  A
C2           C15   1.420       .  S
O3           C11   1.249       .  A
O4           C11   1.282       .  A
C5           O12   1.278       .  A
C5            O6   1.258       .  A
C5           C31   1.495       .  S
C7            O9   1.264       .  A
C7           O13   1.264       .  A
C7           C61   1.588       .  S
C11         C119   1.571       .  S
In14         O16   2.407       .  S
In14         O17   2.203       .  S
In14         O25   2.310       .  S
In14         O19   2.203       .  S
In14         O21   2.235       .  S
In14         O22   2.188   1_655  S
In14         O23   2.184   1_655  S
In14         O26   2.351   1_655  S
C15          O21   1.260   1_455  A
C15          O23   1.249       .  A
O16          C24   1.267       .  A
O17          C24   1.243       .  A
C18          O25   1.275       .  A
C18          O19   1.260       .  A
C18          C44   1.481   1_655  S
C20          O22   1.239       .  A
C20          O26   1.271       .  A
C20          C60   1.529       .  S
C24         C121   1.584       .  S
In27         O29   2.198       .  S
In27         O30   2.296   1_554  S
In27         O38   2.358       .  S
In27         O32   2.190       .  S
In27         O34   2.182       .  S
In27         O35   2.390   1_454  S
In27         O39   2.142   1_455  S
In27        O792   2.233   1_554  S
C28          O34   1.262   1_556  A
C28         O792   1.252       .  A
C28         C797   1.420       .  S
O29          C37   1.256   1_554  A
O30          C37   1.267       .  A
C31          O38   1.275       .  A
C31          O32   1.255       .  A
C33          O35   1.277       .  A
C33          O39   1.245   1_556  A
C33         C879   1.578       .  S
O36        In783   2.237       .  S
O36         C784   1.252       .  A
C37         C811   1.527       .  S
In40         O42   2.370       .  S
In40         O43   2.203       .  S
In40         O51   2.291       .  S
In40         O45   2.206   1_455  S
In40         O47   2.248       .  S
In40         O52   2.204   1_455  S
In40        O804   2.370   1_455  S
In40        O805   2.151   1_455  S
C41          O47   1.264       .  A
C41         O805   1.246   1_455  A
C41         C784   1.421       .  S
O42          C50   1.267       .  A
O43          C50   1.243       .  A
C44          O51   1.273       .  A
C44          O45   1.267   1_455  A
C46          O52   1.244       .  A
C46         O804   1.266       .  A
C46         C883   1.538       .  S
O48        In796   2.367   1_655  S
O48         C802   1.265   1_556  A
O49        In796   2.152   1_654  S
O49         C797   1.246   1_654  A
C50         C810   1.558       .  S
C53         C710   1.600       .  S
C53         C729   1.577       .  S
C53         C742   1.583       .  S
C53         C857   1.584       .  S
C54         C678   1.607       .  S
C54         C694   1.618       .  S
C54         C745   1.589       .  S
C54         C806   1.558       .  S
C55         C646   1.629       .  S
C55         C665   1.605       .  S
C55         C697   1.649       .  S
C55         C793   1.527       .  S
C56         C614   1.607       .  S
C56         C633   1.647       .  S
C56         C662   1.579       .  S
C56         C921   1.549       .  S
C57         C582   1.590       .  S
C57         C601   1.585       .  S
C57         C630   1.601       .  S
C57         C934   1.563       .  S
C58         C566   1.581       .  S
C58         C598   1.585       .  S
C58         C726   1.634       .  S
C58         C870   1.578       .  S
C59          C71   1.580       .  S
C59         C537   1.635       .  S
C59         C553   1.580       .  S
C59         C713   1.551       .  S
C60         C521   1.649       .  S
C60         C550   1.598       .  S
C60         C681   1.569       .  S
C61         C502   1.589       .  S
C61         C518   1.600       .  S
C61         C649   1.624       .  S
C62         C135   1.599       .  S
C62         C486   1.640       .  S
C62         C505   1.615       .  S
C62         C617   1.615       .  S
C63         C148   1.565       .  S
C63         C473   1.564       .  S
C63         C489   1.617       .  S
C63         C585   1.558       .  S
C64          C84   1.555       .  S
C64         C470   1.579       .  S
C64         C534   1.645       .  S
C64         C569   1.570       .  S
In65         O67   2.196       .  S
In65         O68   2.311       .  S
In65         O76   2.365       .  S
In65         O70   2.191       .  S
In65         O72   2.098       .  S
In65         O73   2.348   1_545  S
In65         O74   2.274       .  S
In65         O77   2.188   1_545  S
C66          O72   1.257       .  A
C66          O74   1.263       .  A
C66          C79   1.441       .  S
O67          C75   1.256       .  A
O68          C75   1.275       .  A
C69          O76   1.276       .  A
C69          O70   1.255       .  A
C69          C95   1.499       .  S
C71          O73   1.280       .  A
C71          O77   1.252       .  A
C75         C117   1.547       .  S
In78         O80   2.251       .  S
In78         O81   2.306       .  S
In78         O89   2.341       .  S
In78         O83   2.179   1_545  S
In78         O85   2.280       .  S
In78         O86   2.339   1_545  S
In78         O87   2.121       .  S
In78         O90   2.238   1_545  S
C79          O85   1.257       .  A
C79          O87   1.244       .  A
O80          C88   1.251       .  A
O81          C88   1.259       .  A
C82          O89   1.274       .  A
C82          O83   1.255   1_545  A
C82         C108   1.485       .  S
C84          O86   1.273       .  A
C84          O90   1.250       .  A
C88         C120   1.550       .  S
In91         O93   2.323   1_545  S
In91         O94   2.336   1_544  S
In91        O102   2.356       .  S
In91         O96   2.202       .  S
In91         O98   2.238       .  S
In91         O99   2.279   1_554  S
In91        O103   2.330       .  S
In91        O856   2.231   1_545  S
C92          O98   1.243       .  A
C92         O856   1.252   1_545  A
C92         C861   1.435       .  S
O93         C101   1.266   1_554  A
O94         C101   1.262       .  A
C95         O102   1.277       .  A
C95          O96   1.257       .  A
C97          O99   1.259       .  A
C97         O103   1.268   1_556  A
C97         C881   1.574       .  S
O100       In847   2.225   1_565  S
O100        C848   1.253   1_565  A
C101        C809   1.583       .  S
In104       O106   2.121   1_545  S
In104       O115   2.342       .  S
In104       O109   2.173       .  S
In104       O111   2.187       .  S
In104       O112   2.254       .  S
In104       O116   2.220       .  S
In104       O863   2.352   1_545  S
In104       O869   2.253       .  S
C105        O111   1.258       .  A
C105        O869   1.257       .  A
C105        C848   1.436       .  S
O106        C114   1.248       .  A
O107       In860   2.354   1_564  S
O107        C870   1.283       .  A
C108        O115   1.274       .  A
C108        O109   1.255       .  A
C110        O112   1.276       .  A
C110        O116   1.259       .  A
C110        C880   1.567       .  S
O113       In860   2.254   1_554  S
O113        C861   1.258       .  A
C114        O863   1.283       .  A
C114        C814   1.579       .  S
C117        C422   1.621       .  S
C117        C438   1.637       .  S
C117        C454   1.607       .  S
C118        C139   1.580       .  S
C118        C390   1.612       .  S
C118        C406   1.627       .  S
C118        C457   1.617       .  S
C119        C342   1.594       .  S
C119        C358   1.597       .  S
C119        C374   1.545       .  S
C120        C329   1.609       .  S
C120        C377   1.575       .  S
C120        C441   1.623       .  S
C121        C294   1.618       .  S
C121        C313   1.571       .  S
C121        C361   1.648       .  S
C122        C152   1.583       .  S
C122        C278   1.593       .  S
C122        C310   1.597       .  S
C122        C409   1.591       .  S
C123        C246   1.643       .  S
C123        C265   1.586       .  S
C123        C345   1.601       .  S
C123        C789   1.580       .  S
C124        C230   1.628       .  S
C124        C262   1.581       .  S
C124        C326   1.573       .  S
C124        C866   1.570       .  S
C125        C214   1.610       .  S
C125        C233   1.600       .  S
C125        C425   1.619       .  S
C125        C853   1.575       .  S
C126        C198   1.641       .  S
C126        C217   1.591       .  S
C126        C393   1.610       .  S
C126        C917   1.561       .  S
C127        C182   1.587       .  S
C127        C249   1.585       .  S
C127        C297   1.569       .  S
C127        C802   1.536       .  S
C128        C185   1.574       .  S
C128        C201   1.637       .  S
C128        C281   1.585       .  S
C128        C930   1.555       .  S
In129       O131   2.327       .  S
In129       O132   2.303       .  S
In129       O140   2.370       .  S
In129       O134   2.282       .  S
In129       O136   2.136       .  S
In129       O137   2.341       .  S
In129       O138   2.295       .  S
In129       O141   2.254       .  S
C130        O136   1.263       .  A
C130        O138   1.254       .  A
C130        C143   1.453       .  S
O131        C139   1.260       .  A
O132        C139   1.269       .  A
C133        O140   1.278       .  A
C133        O134   1.268       .  A
C133        C159   1.534       .  S
C135        O137   1.286       .  A
C135        O141   1.259       .  A
In142       O144   2.251       .  S
In142       O145   2.370       .  S
In142       O153   2.340       .  S
In142       O147   2.123       .  S
In142       O149   2.309       .  S
In142       O150   2.211       .  S
In142       O151   2.212       .  S
In142       O154   2.348       .  S
C143        O149   1.258       .  A
C143        O151   1.243       .  A
O144        C152   1.262       .  A
O145        C152   1.267       .  A
C146        O153   1.271       .  A
C146        O147   1.248       .  A
C146        C172   1.462       .  S
C148        O150   1.258       .  A
C148        O154   1.271       .  A
In155       O157   2.231       .  S
In155       O158   2.369       .  S
In155       O166   2.397       .  S
In155       O160   2.278       .  S
In155       O162   2.142       .  S
In155       O163   2.350       .  S
In155       O167   2.202       .  S
In155       O920   2.259       .  S
C156        O162   1.262       .  A
C156        O920   1.253       .  A
C156        C925   1.436       .  S
O157        C165   1.253       .  A
O158        C165   1.268       .  A
C159        O166   1.276       .  A
C159        O160   1.255       .  A
C161        O163   1.285       .  A
C161        O167   1.248       .  A
C161        C882   1.560       .  S
O164       In911   2.259   1_554  S
O164        C912   1.253       .  A
C165        C812   1.550       .  S
In168       O170   2.263       .  S
In168       O171   2.297   1_554  S
In168       O179   2.323       .  S
In168       O173   2.116       .  S
In168       O175   2.251       .  S
In168       O176   2.324   1_554  S
In168       O180   2.219       .  S
In168       O933   2.128   1_554  S
C169        O175   1.256       .  A
C169        O933   1.251   1_554  A
C169        C912   1.436       .  S
O170        C178   1.259   1_554  A
O171        C178   1.265       .  A
C172        O179   1.274       .  A
C172        O173   1.253       .  A
C174        O176   1.277       .  A
C174        O180   1.256   1_556  A
C174        C884   1.555       .  S
O177       In924   2.127       .  S
O177        C925   1.252       .  A
C178        C813   1.558       .  S
C181        C182   1.420       .  A
C181        C186   1.426       .  A
C181        H188   1.069       .  S
C182        C939   1.447   1_554  A
C183        C190   1.541       .  S
C183        C184   1.400       .  A
C183        C938   1.446       .  A
C184        C185   1.407       .  A
C184        H189   1.079       .  S
C185        C942   1.435       .  A
C186        C187   1.524       .  S
C186        C941   1.434   1_554  A
C187        F191   1.385       .  S
C187        F192   1.378       .  S
C187        F193   1.379   1_554  S
C190        F194   1.368       .  S
C190        F195   1.378       .  S
C190        F196   1.382       .  S
C197        C198   1.430       .  A
C197        C202   1.437       .  A
C197        H204   1.075       .  S
C198        C955   1.452   1_554  A
C199        C206   1.537       .  S
C199        C200   1.432       .  A
C199        C954   1.452       .  A
C200        C201   1.419       .  A
C200        H205   1.074       .  S
C201        C958   1.437       .  A
C202        C203   1.531       .  S
C202        C957   1.437   1_554  A
C203        F207   1.378       .  S
C203        F208   1.375       .  S
C203        F209   1.376       .  S
C206        F210   1.373       .  S
C206        F211   1.361       .  S
C206        F212   1.384       .  S
C213        C218   1.433   1_556  A
C213        C970   1.425       .  A
C213        H220   1.076       .  S
C214        C215   1.455       .  A
C214        C969   1.425       .  A
C215        C222   1.527       .  S
C215        C216   1.413       .  A
C216        C973   1.399       .  A
C216        H221   1.084       .  S
C217        C218   1.442       .  A
C217        C972   1.399       .  A
C218        C219   1.524   1_554  S
C219        F223   1.379       .  S
C219        F224   1.380   1_556  S
C219        F225   1.385       .  S
C222        F226   1.381       .  S
C222        F227   1.368       .  S
C222        F228   1.379       .  S
C229        C234   1.424       .  A
C229        C986   1.415       .  A
C229        H236   1.077       .  S
C230        C231   1.452       .  A
C230        C985   1.417   1_554  A
C231        C238   1.535       .  S
C231        C232   1.431       .  A
C232        C989   1.417   1_554  A
C232        H237   1.079       .  S
C233        C234   1.437       .  A
C233        C988   1.417       .  A
C234        C235   1.530       .  S
C235        F239   1.380       .  S
C235        F240   1.358       .  S
C235        F241   1.372       .  S
C238        F242   1.372       .  S
C238        F243   1.355       .  S
C238        F244   1.384       .  S
C245        C250   1.419       .  A
C245       C1002   1.427   1_554  A
C245        H252   1.077       .  S
C246        C247   1.435       .  A
C246       C1001   1.427       .  A
C247        C254   1.495       .  S
C247        C248   1.413       .  A
C248       C1005   1.407       .  A
C248        H253   1.082       .  S
C249        C250   1.437       .  A
C249       C1004   1.407   1_554  A
C250        C251   1.525       .  S
C251        F255   1.385       .  S
C251        F256   1.380       .  S
C251        F257   1.376       .  S
C254        F258   1.378       .  S
C254        F259   1.352       .  S
C254        F260   1.387       .  S
C261        C266   1.427       .  A
C261       C1018   1.418       .  A
C261        H268   1.081       .  S
C262        C263   1.418       .  A
C262       C1017   1.417       .  A
C263        C270   1.508       .  S
C263        C264   1.400       .  A
C264       C1021   1.416   1_554  A
C264        H269   1.078       .  S
C265        C266   1.446       .  A
C265       C1020   1.415       .  A
C266        C267   1.524       .  S
C267        F271   1.383       .  S
C267        F272   1.372       .  S
C267        F273   1.385       .  S
C270        F274   1.385       .  S
C270        F275   1.366       .  S
C270        F276   1.383       .  S
C277        C278   1.425       .  A
C277        C282   1.393       .  A
C277        H284   1.073       .  S
C278        C279   1.441       .  A
C279        C286   1.517       .  S
C279        C280   1.434       .  A
C280        C281   1.424       .  A
C280        H285   1.079       .  S
C281        C282   1.407       .  A
C282        C283   1.511       .  S
C283        F287   1.374       .  S
C283        F288   1.359       .  S
C283        F289   1.381       .  S
C286        F290   1.384       .  S
C286        F291   1.374       .  S
C286        F292   1.383       .  S
C293        C294   1.437       .  A
C293        C298   1.418       .  A
C293        H300   1.071       .  S
C294        C295   1.440       .  A
C295        C302   1.501       .  S
C295        C296   1.402       .  A
C296        C297   1.393       .  A
C296        H301   1.062       .  S
C297        C298   1.433       .  A
C298        C299   1.534       .  S
C299        F303   1.386       .  S
C299        F304   1.373       .  S
C299        F305   1.377       .  S
C302        F306   1.375       .  S
C302        F307   1.362       .  S
C302        F308   1.385       .  S
C309        C310   1.418       .  A
C309        C314   1.411       .  A
C309        H316   1.071       .  S
C310        C311   1.451       .  A
C311        C318   1.531       .  S
C311        C312   1.418       .  A
C312        C313   1.406       .  A
C312        H317   1.079       .  S
C313        C314   1.432       .  A
C314        C315   1.526       .  S
C315        F319   1.386       .  S
C315        F320   1.379       .  S
C315        F321   1.379       .  S
C318        F322   1.380       .  S
C318        F323   1.374       .  S
C318        F324   1.382       .  S
C325        C326   1.414       .  A
C325        C330   1.417       .  A
C325        H332   1.081       .  S
C326        C327   1.428       .  A
C327        C334   1.526       .  S
C327        C328   1.417       .  A
C328        C329   1.426       .  A
C328        H333   1.077       .  S
C329        C330   1.444       .  A
C330        C331   1.511       .  S
C331        F335   1.384       .  S
C331        F336   1.351       .  S
C331        F337   1.383       .  S
C334        F338   1.374       .  S
C334        F339   1.379       .  S
C334        F340   1.385       .  S
C341        C342   1.410       .  A
C341        C346   1.415       .  A
C341        H348   1.074       .  S
C342        C343   1.445       .  A
C343        C350   1.530       .  S
C343        C344   1.426       .  A
C344        C345   1.417       .  A
C344        H349   1.077       .  S
C345        C346   1.440       .  A
C346        C347   1.503       .  S
C347        F351   1.382       .  S
C347        F352   1.374       .  S
C347        F353   1.375       .  S
C350        F354   1.383       .  S
C350        F355   1.369       .  S
C350        F356   1.376       .  S
C357        C358   1.418       .  A
C357        C362   1.444       .  A
C357        H364   1.078       .  S
C358        C359   1.404       .  A
C359        C366   1.512       .  S
C359        C360   1.405       .  A
C360        C361   1.418       .  A
C360        H365   1.075       .  S
C361        C362   1.492       .  A
C362        C363   1.525       .  S
C363        F367   1.386       .  S
C363        F368   1.356       .  S
C363        F369   1.378       .  S
C366        F370   1.378       .  S
C366        F371   1.378       .  S
C366        F372   1.368       .  S
C373        C374   1.411       .  A
C373        C378   1.419       .  A
C373        H380   1.084       .  S
C374        C375   1.412       .  A
C375        C382   1.514       .  S
C375        C376   1.396       .  A
C376        C377   1.411       .  A
C376        H381   1.080       .  S
C377        C378   1.444       .  A
C378        C379   1.523       .  S
C379        F383   1.386       .  S
C379        F384   1.380       .  S
C379        F385   1.381       .  S
C382        F386   1.376       .  S
C382        F387   1.368       .  S
C382        F388   1.384       .  S
C389        C390   1.410       .  A
C389        C394   1.415       .  A
C389        H396   1.081       .  S
C390        C391   1.447       .  A
C391        C398   1.527       .  S
C391        C392   1.427       .  A
C392        C393   1.413       .  A
C392        H397   1.079       .  S
C393        C394   1.443       .  A
C394        C395   1.508       .  S
C395        F399   1.384       .  S
C395        F400   1.359       .  S
C395        F401   1.383       .  S
C398        F402   1.378       .  S
C398        F403   1.383       .  S
C398        F404   1.383       .  S
C405        C406   1.423       .  A
C405        C410   1.414       .  A
C405        H412   1.059       .  S
C406        C407   1.442       .  A
C407        C414   1.519       .  S
C407        C408   1.431       .  A
C408        C409   1.416       .  A
C408        H413   1.076       .  S
C409        C410   1.437       .  A
C410        C411   1.549       .  S
C411        F415   1.378       .  S
C411        F416   1.337       .  S
C411        F417   1.362       .  S
C414        F418   1.373       .  S
C414        F419   1.376       .  S
C414        F420   1.377       .  S
C421        C422   1.418       .  A
C421        C426   1.426       .  A
C421        H428   1.079       .  S
C422        C423   1.432       .  A
C423        C430   1.518       .  S
C423        C424   1.427       .  A
C424        C425   1.428       .  A
C424        H429   1.080       .  S
C425        C426   1.453       .  A
C426        C427   1.525       .  S
C427        F431   1.386       .  S
C427        F432   1.372       .  S
C427        F433   1.362       .  S
C430        F434   1.383       .  S
C430        F435   1.376       .  S
C430        F436   1.385       .  S
C437        C438   1.417       .  A
C437        C442   1.416       .  A
C437        H444   1.081       .  S
C438        C439   1.450       .  A
C439        C446   1.505       .  S
C439        C440   1.444       .  A
C440        C441   1.419       .  A
C440        H445   1.074       .  S
C441        C442   1.431       .  A
C442        C443   1.512       .  S
C443        F447   1.380       .  S
C443        F448   1.372       .  S
C443        F449   1.377       .  S
C446        F450   1.371       .  S
C446        F451   1.373       .  S
C446        F452   1.384       .  S
C453        C454   1.416       .  A
C453        C458   1.416       .  A
C453        H460   1.072       .  S
C454        C455   1.452       .  A
C455        C462   1.540       .  S
C455        C456   1.423       .  A
C456        C457   1.420       .  A
C456        H461   1.056       .  S
C457        C458   1.440       .  A
C458        C459   1.519       .  S
C459        F463   1.385       .  S
C459        F464   1.365       .  S
C459        F465   1.382       .  S
C462        F466   1.377       .  S
C462        F467   1.378       .  S
C462        F468   1.381       .  S
C469        C470   1.402       .  A
C469        C474   1.403       .  A
C469        H476   1.085       .  S
C470        C471   1.455       .  A
C471        C478   1.521       .  S
C471        C472   1.394       .  A
C472        C473   1.393       .  A
C472        H477   1.080       .  S
C473        C474   1.439       .  A
C474        C475   1.522       .  S
C475        F479   1.389       .  S
C475        F480   1.379       .  S
C475        F481   1.375       .  S
C478        F482   1.368       .  S
C478        F483   1.374       .  S
C478        F484   1.388       .  S
C485        C486   1.424       .  A
C485        C490   1.417       .  A
C485        H492   1.082       .  S
C486        C487   1.457       .  A
C487        C494   1.524       .  S
C487        C488   1.439       .  A
C488        C489   1.416       .  A
C488        H493   1.077       .  S
C489        C490   1.426       .  A
C490        C491   1.510       .  S
C491        F495   1.369       .  S
C491        F496   1.368       .  S
C491        F497   1.381       .  S
C494        F498   1.371       .  S
C494        F499   1.375       .  S
C494        F500   1.384       .  S
C501        C502   1.421       .  A
C501        C506   1.425       .  A
C501        H508   1.082       .  S
C502        C503   1.444       .  A
C503        C510   1.557       .  S
C503        C504   1.412       .  A
C504        C505   1.423       .  A
C504        H509   1.057       .  S
C505        C506   1.439       .  A
C506        C507   1.520       .  S
C507        F511   1.386       .  S
C507        F512   1.381       .  S
C507        F513   1.376       .  S
C510        F514   1.384       .  S
C510        F515   1.365       .  S
C510        F516   1.380       .  S
C517        C518   1.406       .  A
C517        C522   1.421       .  A
C517        H524   1.081       .  S
C518        C519   1.425       .  A
C519        C526   1.509       .  S
C519        C520   1.438       .  A
C520        C521   1.435       .  A
C520        H525   1.070       .  S
C521        C522   1.452       .  A
C522        C523   1.510       .  S
C523        F527   1.383       .  S
C523        F528   1.364       .  S
C523        F529   1.375       .  S
C526        F530   1.355       .  S
C526        F531   1.375       .  S
C526        F532   1.376       .  S
C533        C534   1.434       .  A
C533        C538   1.446       .  A
C533        H540   1.075       .  S
C534        C535   1.455       .  A
C535        C542   1.510       .  S
C535        C536   1.419       .  A
C536        C537   1.401       .  A
C536        H541   1.074       .  S
C537        C538   1.431       .  A
C538        C539   1.500       .  S
C539        F543   1.369       .  S
C539        F544   1.362       .  S
C539        F545   1.382       .  S
C542        F546   1.328       .  S
C542        F547   1.346       .  S
C542        F548   1.380       .  S
C549        C550   1.392       .  A
C549        C554   1.416       .  A
C549        H556   1.075       .  S
C550        C551   1.444       .  A
C551        C558   1.527       .  S
C551        C552   1.398       .  A
C552        C553   1.401       .  A
C552        H557   1.078       .  S
C553        C554   1.463       .  A
C554        C555   1.533       .  S
C555        F559   1.385       .  S
C555        F560   1.382       .  S
C555        F561   1.358       .  S
C558        F562   1.360       .  S
C558        F563   1.380       .  S
C558        F564   1.387       .  S
C565        C566   1.421       .  A
C565        C570   1.407       .  A
C565        H572   1.065       .  S
C566        C567   1.433       .  A
C567        C574   1.528       .  S
C567        C568   1.413       .  A
C568        C569   1.419       .  A
C568        H573   1.082       .  S
C569        C570   1.446       .  A
C570        C571   1.542       .  S
C571        F575   1.386   1_565  S
C571        F576   1.376       .  S
C571        F577   1.365       .  S
C574        F578   1.378       .  S
C574        F579   1.377       .  S
C574        F580   1.386       .  S
C581        C582   1.429       .  A
C581        C586   1.407       .  A
C581        H588   1.071       .  S
C582        C583   1.444       .  A
C583        C590   1.538       .  S
C583        C584   1.424       .  A
C584        C585   1.408       .  A
C584        H589   1.075       .  S
C585        C586   1.399       .  A
C586        C587   1.541       .  S
C587        F591   1.371       .  S
C587        F592   1.356       .  S
C587        F593   1.383       .  S
C590        F594   1.373       .  S
C590        F595   1.377       .  S
C590        F596   1.383       .  S
C597        C602   1.404       .  A
C597       C1354   1.415       .  A
C597        H604   1.068       .  S
C598        C599   1.446       .  A
C598       C1353   1.415   1_554  A
C599        C606   1.526       .  S
C599        C600   1.418       .  A
C600       C1357   1.412   1_554  A
C600        H605   1.079       .  S
C601        C602   1.437       .  A
C601       C1356   1.412       .  A
C602        C603   1.530       .  S
C603        F607   1.384       .  S
C603        F608   1.372       .  S
C603        F609   1.376       .  S
C606        F610   1.363       .  S
C606        F611   1.383       .  S
C606        F612   1.386       .  S
C613        C614   1.381       .  A
C613        C618   1.409       .  A
C613        H620   1.061       .  S
C614        C615   1.444       .  A
C615        C622   1.532       .  S
C615        C616   1.420       .  A
C616        C617   1.423       .  A
C616        H621   1.073       .  S
C617        C618   1.453       .  A
C618        C619   1.507       .  S
C619        F623   1.375       .  S
C619        F624   1.373       .  S
C619        F625   1.375       .  S
C622        F626   1.383       .  S
C622        F627   1.380       .  S
C622        F628   1.386       .  S
C629        C634   1.430       .  A
C629       C1386   1.411   1_554  A
C629        H636   1.076       .  S
C630        C631   1.428       .  A
C630       C1385   1.412       .  A
C631        C638   1.511       .  S
C631        C632   1.409       .  A
C632       C1389   1.420       .  A
C632        H637   1.066       .  S
C633        C634   1.461       .  A
C633       C1388   1.419   1_554  A
C634        C635   1.518       .  S
C635        F639   1.388       .  S
C635        F640   1.373       .  S
C635        F641   1.369       .  S
C638        F642   1.321       .  S
C638        F643   1.369       .  S
C638        F644   1.367       .  S
C645        C646   1.416       .  A
C645        C650   1.421       .  A
C645        H652   1.077       .  S
C646        C647   1.435       .  A
C647        C654   1.516       .  S
C647        C648   1.431       .  A
C648        C649   1.428       .  A
C648        H653   1.079       .  S
C649        C650   1.453       .  A
C650        C651   1.528       .  S
C651        F655   1.386       .  S
C651        F656   1.369       .  S
C651        F657   1.370       .  S
C654        F658   1.382       .  S
C654        F659   1.369       .  S
C654        F660   1.385       .  S
C661        C662   1.401       .  A
C661        C666   1.427       .  A
C661        H668   1.077       .  S
C662       C1419   1.415   1_554  A
C663        C670   1.516       .  S
C663        C664   1.402       .  A
C663       C1418   1.414       .  A
C664        C665   1.415       .  A
C664        H669   1.067       .  S
C665       C1422   1.475       .  A
C666        C667   1.543       .  S
C666       C1421   1.475   1_554  A
C667        F671   1.377       .  S
C667        F672   1.377       .  S
C667        F673   1.386       .  S
C670        F674   1.378       .  S
C670        F675   1.378       .  S
C670        F676   1.386       .  S
C677        C678   1.428       .  A
C677        C682   1.412       .  A
C677        H684   1.074       .  S
C678        C679   1.444       .  A
C679        C686   1.531       .  S
C679        C680   1.422       .  A
C680        C681   1.412       .  A
C680        H685   1.082       .  S
C681        C682   1.437       .  A
C682        C683   1.543       .  S
C683        F687   1.386       .  S
C683        F688   1.380       .  S
C683        F689   1.377       .  S
C686        F690   1.373       .  S
C686        F691   1.385       .  S
C686        F692   1.379       .  S
C693        C694   1.400       .  A
C693        C698   1.434       .  A
C693        H700   1.054       .  S
C694       C1451   1.436   1_554  A
C695        C702   1.528       .  S
C695        C696   1.427       .  A
C695       C1450   1.436       .  A
C696        C697   1.431       .  A
C696        H701   1.075       .  S
C697       C1454   1.455       .  A
C698        C699   1.513       .  S
C698       C1453   1.454   1_554  A
C699        F703   1.383       .  S
C699        F704   1.361       .  S
C699        F705   1.381       .  S
C702        F706   1.369       .  S
C702        F707   1.372       .  S
C702        F708   1.382       .  S
C709        C710   1.424       .  A
C709        C714   1.395       .  A
C709        H716   1.068       .  S
C710        C711   1.448       .  A
C711        C718   1.526       .  S
C711        C712   1.429       .  A
C712        C713   1.419       .  A
C712        H717   1.081       .  S
C713        C714   1.395       .  A
C714        C715   1.512       .  S
C715        F719   1.367       .  S
C715        F720   1.361       .  S
C715        F721   1.383       .  S
C718        F722   1.375       .  S
C718        F723   1.378       .  S
C718        F724   1.385       .  S
C725        C730   1.407       .  A
C725       C1482   1.420       .  A
C725        H732   1.084       .  S
C726        C727   1.448       .  A
C726       C1481   1.418   1_554  A
C727        C734   1.491       .  S
C727        C728   1.416       .  A
C728       C1485   1.412   1_554  A
C728        H733   1.082       .  S
C729        C730   1.421       .  A
C729       C1484   1.412       .  A
C730        C731   1.507       .  S
C731        F735   1.345       .  S
C731        F736   1.372       .  S
C731        F737   1.378       .  S
C734        F738   1.376       .  S
C734        F739   1.373       .  S
C734        F740   1.388       .  S
C741        C742   1.420       .  A
C741       C1502   1.427       .  A
C741        H748   1.077       .  S
C742       C1499   1.446       .  A
C743        C750   1.550       .  S
C743        C744   1.398       .  A
C743       C1498   1.446       .  A
C744        C745   1.414   1_556  A
C744        H749   1.064       .  S
C745        C746   1.437       .  A
C746        C747   1.528       .  S
C746       C1497   1.428   1_554  A
C747        F752   1.375       .  S
C747       F1507   1.385       .  S
C747       F1509   1.374       .  S
C750        F754   1.372       .  S
C750        F756   1.386       .  S
C750       F1511   1.364       .  S
F751       C1503   1.385       .  S
F753       C1503   1.375       .  S
F755       C1506   1.364       .  S
In757       O759   2.192   1_455  S
In757       O760   2.362   1_455  S
In757       O768   2.356       .  S
In757       O762   2.191       .  S
In757       O764   2.187       .  S
In757       O765   2.303       .  S
In757       O766   2.202       .  S
In757       O769   2.303       .  S
C758        O764   1.261       .  A
C758        O766   1.255       .  A
C758        C771   1.420       .  S
O759        C767   1.250       .  A
O760        C767   1.282       .  A
C761        O768   1.278       .  A
C761        O762   1.258       .  A
C761        C787   1.497       .  S
C763        O765   1.263       .  A
C763        O769   1.265       .  A
C763        C817   1.586       .  S
C767        C875   1.573       .  S
In770       O772   2.404       .  S
In770       O773   2.200       .  S
In770       O781   2.308   1_655  S
In770       O775   2.207       .  S
In770       O777   2.233       .  S
In770       O778   2.192   1_655  S
In770       O779   2.187   1_655  S
In770       O782   2.345   1_655  S
C771        O777   1.260   1_455  A
C771        O779   1.249       .  A
O772        C780   1.267       .  A
O773        C780   1.243       .  A
C774        O781   1.275   1_655  A
C774        O775   1.261       .  A
C774        C800   1.482   1_655  S
C776        O778   1.241       .  A
C776        O782   1.271       .  A
C776        C816   1.529       .  S
C780        C877   1.582       .  S
In783       O785   2.196       .  S
In783       O786   2.302       .  S
In783       O794   2.360       .  S
In783       O788   2.196       .  S
In783       O790   2.183       .  S
In783       O791   2.392   1_455  S
In783       O795   2.140   1_455  S
C784        O790   1.262       .  A
O785        C793   1.256       .  A
O786        C793   1.267       .  A
C787        O794   1.276       .  A
C787        O788   1.255       .  A
C789        O791   1.277       .  A
C789        O795   1.245       .  A
In796       O798   2.365       .  S
In796       O799   2.205   1_556  S
In796       O807   2.289       .  S
In796       O801   2.209   1_455  S
In796       O803   2.247       .  S
In796       O808   2.200   1_456  S
C797        O803   1.263       .  A
O798        C806   1.267   1_556  A
O799        C806   1.243       .  A
C800        O807   1.273       .  A
C800        O801   1.267   1_455  A
C802        O808   1.244       .  A
C809       C1466   1.599       .  S
C809       C1485   1.577       .  S
C809       C1498   1.583       .  S
C810       C1434   1.605       .  S
C810       C1450   1.617       .  S
C810       C1501   1.590       .  S
C811       C1402   1.627       .  S
C811       C1421   1.607       .  S
C811       C1453   1.652       .  S
C812       C1370   1.604       .  S
C812       C1389   1.648       .  S
C812       C1418   1.578       .  S
C813       C1338   1.586       .  S
C813       C1357   1.583       .  S
C813       C1386   1.603       .  S
C814       C1322   1.585       .  S
C814       C1354   1.589       .  S
C814       C1482   1.634       .  S
C815        C827   1.580       .  S
C815       C1293   1.638       .  S
C815       C1309   1.580       .  S
C815       C1469   1.554       .  S
C816       C1277   1.650       .  S
C816       C1306   1.599       .  S
C816       C1437   1.567       .  S
C817       C1258   1.590       .  S
C817       C1274   1.599       .  S
C817       C1405   1.622       .  S
C818        C891   1.598       .  S
C818       C1242   1.639       .  S
C818       C1261   1.616       .  S
C818       C1373   1.613       .  S
C819        C904   1.567       .  S
C819       C1229   1.563       .  S
C819       C1245   1.617       .  S
C819       C1341   1.557       .  S
C820        C840   1.553       .  S
C820       C1226   1.579       .  S
C820       C1290   1.646       .  S
C820       C1325   1.574       .  S
In821       O823   2.199       .  S
In821       O824   2.312       .  S
In821       O832   2.365       .  S
In821       O826   2.194       .  S
In821       O828   2.103       .  S
In821       O829   2.349   1_545  S
In821       O830   2.273       .  S
In821       O833   2.187   1_545  S
C822        O828   1.257       .  A
C822        O830   1.263       .  A
C822        C835   1.442       .  S
O823        C831   1.256       .  A
O824        C831   1.275       .  A
C825        O832   1.276       .  A
C825        O826   1.255       .  A
C825        C851   1.500       .  S
C827        O829   1.280       .  A
C827        O833   1.251       .  A
C831        C873   1.547       .  S
In834       O836   2.234       .  S
In834       O837   2.311       .  S
In834       O845   2.340       .  S
In834       O839   2.179   1_545  S
In834       O841   2.280       .  S
In834       O842   2.333   1_545  S
In834       O843   2.121       .  S
In834       O846   2.236   1_545  S
C835        O841   1.257       .  A
C835        O843   1.244       .  A
O836        C844   1.249       .  A
O837        C844   1.260       .  A
C838        O845   1.273       .  A
C838        O839   1.255   1_545  A
C838        C864   1.485       .  S
C840        O842   1.272       .  A
C840        O846   1.251       .  A
C844        C876   1.548       .  S
In847       O849   2.317   1_545  S
In847       O850   2.347   1_545  S
In847       O858   2.357       .  S
In847       O852   2.205       .  S
In847       O854   2.242       .  S
In847       O855   2.270       .  S
In847       O859   2.339       .  S
C848        O854   1.245       .  A
O849        C857   1.265       .  A
O850        C857   1.263       .  A
C851        O858   1.277       .  A
C851        O852   1.257       .  A
C853        O855   1.257       .  A
C853        O859   1.270       .  A
In860       O862   2.122   1_546  S
In860       O871   2.343       .  S
In860       O865   2.171       .  S
In860       O867   2.183       .  S
In860       O868   2.254   1_556  S
In860       O872   2.227       .  S
C861        O867   1.257   1_554  A
O862        C870   1.248       .  A
C864        O871   1.274       .  A
C864        O865   1.255       .  A
C866        O868   1.276       .  A
C866        O872   1.259   1_554  A
C873       C1178   1.620       .  S
C873       C1194   1.637       .  S
C873       C1210   1.608       .  S
C874        C895   1.580       .  S
C874       C1146   1.614       .  S
C874       C1162   1.629       .  S
C874       C1213   1.618       .  S
C875       C1098   1.598       .  S
C875       C1114   1.600       .  S
C875       C1130   1.548       .  S
C876       C1085   1.610       .  S
C876       C1133   1.576       .  S
C876       C1197   1.624       .  S
C877       C1050   1.618       .  S
C877       C1069   1.575       .  S
C877       C1117   1.651       .  S
C878        C908   1.581       .  S
C878       C1034   1.594       .  S
C878       C1066   1.597       .  S
C878       C1165   1.593       .  S
C879       C1002   1.643       .  S
C879       C1021   1.588       .  S
C879       C1101   1.602       .  S
C880        C986   1.628       .  S
C880       C1018   1.579       .  S
C880       C1082   1.575       .  S
C881        C970   1.611       .  S
C881        C989   1.600       .  S
C881       C1181   1.619       .  S
C882        C954   1.640       .  S
C882        C973   1.590       .  S
C882       C1149   1.611       .  S
C883        C938   1.589       .  S
C883       C1005   1.585       .  S
C883       C1053   1.571       .  S
C884        C941   1.572       .  S
C884        C957   1.636       .  S
C884       C1037   1.584       .  S
In885       O887   2.325       .  S
In885       O888   2.300       .  S
In885       O896   2.368       .  S
In885       O890   2.274       .  S
In885       O892   2.135       .  S
In885       O893   2.337       .  S
In885       O894   2.291       .  S
In885       O897   2.254       .  S
C886        O892   1.263       .  A
C886        O894   1.254       .  A
C886        C899   1.452       .  S
O887        C895   1.259       .  A
O888        C895   1.269       .  A
C889        O896   1.279       .  A
C889        O890   1.267       .  A
C889        C915   1.531       .  S
C891        O893   1.286       .  A
C891        O897   1.259       .  A
In898       O900   2.251       .  S
In898       O901   2.368       .  S
In898       O909   2.344       .  S
In898       O903   2.122       .  S
In898       O905   2.304       .  S
In898       O906   2.215       .  S
In898       O907   2.216       .  S
In898       O910   2.347       .  S
C899        O905   1.257       .  A
C899        O907   1.244       .  A
O900        C908   1.261       .  A
O901        C908   1.266       .  A
C902        O909   1.272       .  A
C902        O903   1.249       .  A
C902        C928   1.465       .  S
C904        O906   1.259       .  A
C904        O910   1.271       .  A
In911       O913   2.230   1_556  S
In911       O914   2.372       .  S
In911       O922   2.397       .  S
In911       O916   2.270       .  S
In911       O918   2.144       .  S
In911       O919   2.346   1_556  S
In911       O923   2.204       .  S
C912        O918   1.262   1_554  A
O913        C921   1.252       .  A
O914        C921   1.268   1_556  A
C915        O922   1.276       .  A
C915        O916   1.254       .  A
C917        O919   1.285       .  A
C917        O923   1.248   1_554  A
In924       O926   2.276       .  S
In924       O927   2.304       .  S
In924       O935   2.333       .  S
In924       O929   2.110       .  S
In924       O931   2.249       .  S
In924       O932   2.335       .  S
In924       O936   2.221       .  S
C925        O931   1.256       .  A
O926        C934   1.260       .  A
O927        C934   1.264       .  A
C928        O935   1.275       .  A
C928        O929   1.252       .  A
C930        O932   1.277       .  A
C930        O936   1.253       .  A
C937        C938   1.419       .  A
C937        C942   1.427       .  A
C937        H944   1.060       .  S
C939        C946   1.542       .  S
C939        C940   1.398       .  A
C940        C941   1.405       .  A
C940        H945   1.080       .  S
C942        C943   1.525       .  S
C943        F947   1.385       .  S
C943        F948   1.377       .  S
C943        F949   1.379       .  S
C946        F950   1.368   1_556  S
C946        F951   1.379       .  S
C946        F952   1.382   1_556  S
C953        C954   1.428       .  A
C953        C958   1.435       .  A
C953        H960   1.075       .  S
C955        C962   1.537       .  S
C955        C956   1.431       .  A
C956        C957   1.419       .  A
C956        H961   1.073       .  S
C958        C959   1.529       .  S
C959        F963   1.378       .  S
C959        F964   1.373       .  S
C959        F965   1.376       .  S
C962        F966   1.373       .  S
C962        F967   1.360       .  S
C962        F968   1.384       .  S
C969        C974   1.432       .  A
C969        H976   1.076       .  S
C970        C971   1.455   1_556  A
C971        C978   1.528       .  S
C971        C972   1.413       .  A
C972        H977   1.084       .  S
C973        C974   1.441       .  A
C974        C975   1.523       .  S
C975        F979   1.379       .  S
C975        F980   1.380       .  S
C975        F981   1.385       .  S
C978        F982   1.381       .  S
C978        F983   1.368       .  S
C978        F984   1.378       .  S
C985        C990   1.425       .  A
C985        H992   1.076       .  S
C986        C987   1.452       .  A
C987        C994   1.534       .  S
C987        C988   1.431       .  A
C988        H993   1.079       .  S
C989        C990   1.436       .  A
C990        C991   1.531       .  S
C991        F995   1.380       .  S
C991        F996   1.359       .  S
C991        F997   1.373       .  S
C994        F998   1.372       .  S
C994        F999   1.355       .  S
C994       F1000   1.384       .  S
C1001      C1006   1.420       .  A
C1001      H1008   1.076       .  S
C1002      C1003   1.435       .  A
C1003      C1010   1.495       .  S
C1003      C1004   1.414       .  A
C1004      H1009   1.082       .  S
C1005      C1006   1.437       .  A
C1006      C1007   1.525       .  S
C1007      F1011   1.385       .  S
C1007      F1012   1.380       .  S
C1007      F1013   1.377       .  S
C1010      F1014   1.379       .  S
C1010      F1015   1.352       .  S
C1010      F1016   1.386       .  S
C1017      C1022   1.427   1_554  A
C1017      H1024   1.081   1_554  S
C1018      C1019   1.416       .  A
C1019      C1026   1.506       .  S
C1019      C1020   1.398       .  A
C1020      H1025   1.078       .  S
C1021      C1022   1.446       .  A
C1022      C1023   1.523       .  S
C1023      F1027   1.383       .  S
C1023      F1028   1.372       .  S
C1023      F1029   1.384       .  S
C1026      F1030   1.385       .  S
C1026      F1031   1.366       .  S
C1026      F1032   1.382       .  S
C1033      C1034   1.425       .  A
C1033      C1038   1.393       .  A
C1033      H1040   1.073       .  S
C1034      C1035   1.441       .  A
C1035      C1042   1.519       .  S
C1035      C1036   1.435       .  A
C1036      C1037   1.424       .  A
C1036      H1041   1.077       .  S
C1037      C1038   1.404       .  A
C1038      C1039   1.510       .  S
C1039      F1043   1.373       .  S
C1039      F1044   1.359       .  S
C1039      F1045   1.380       .  S
C1042      F1046   1.385       .  S
C1042      F1047   1.376       .  S
C1042      F1048   1.382       .  S
C1049      C1050   1.436       .  A
C1049      C1054   1.418       .  A
C1049      H1056   1.072       .  S
C1050      C1051   1.439       .  A
C1051      C1058   1.500       .  S
C1051      C1052   1.404       .  A
C1052      C1053   1.394       .  A
C1052      H1057   1.065       .  S
C1053      C1054   1.434       .  A
C1054      C1055   1.536       .  S
C1055      F1059   1.386       .  S
C1055      F1060   1.373       .  S
C1055      F1061   1.378       .  S
C1058      F1062   1.376       .  S
C1058      F1063   1.362       .  S
C1058      F1064   1.384       .  S
C1065      C1066   1.418       .  A
C1065      C1070   1.414       .  A
C1065      H1072   1.071       .  S
C1066      C1067   1.449       .  A
C1067      C1074   1.531       .  S
C1067      C1068   1.419       .  A
C1068      C1069   1.407       .  A
C1068      H1073   1.078       .  S
C1069      C1070   1.434       .  A
C1070      C1071   1.526       .  S
C1071      F1075   1.386       .  S
C1071      F1076   1.379       .  S
C1071      F1077   1.378       .  S
C1074      F1078   1.380       .  S
C1074      F1079   1.374       .  S
C1074      F1080   1.382       .  S
C1081      C1082   1.413       .  A
C1081      C1086   1.416       .  A
C1081      H1088   1.081       .  S
C1082      C1083   1.430       .  A
C1083      C1090   1.526       .  S
C1083      C1084   1.419       .  A
C1084      C1085   1.426       .  A
C1084      H1089   1.078       .  S
C1085      C1086   1.444       .  A
C1086      C1087   1.510       .  S
C1087      F1091   1.384       .  S
C1087      F1092   1.350       .  S
C1087      F1093   1.384       .  S
C1090      F1094   1.374       .  S
C1090      F1095   1.379       .  S
C1090      F1096   1.385       .  S
C1097      C1098   1.409       .  A
C1097      C1102   1.416       .  A
C1097      H1104   1.074       .  S
C1098      C1099   1.447       .  A
C1099      C1106   1.529       .  S
C1099      C1100   1.427       .  A
C1100      C1101   1.416       .  A
C1100      H1105   1.078       .  S
C1101      C1102   1.441       .  A
C1102      C1103   1.504       .  S
C1103      F1107   1.382       .  S
C1103      F1108   1.374       .  S
C1103      F1109   1.376       .  S
C1106      F1110   1.383       .  S
C1106      F1111   1.369       .  S
C1106      F1112   1.375       .  S
C1113      C1114   1.418       .  A
C1113      C1118   1.446       .  A
C1113      H1120   1.078       .  S
C1114      C1115   1.406       .  A
C1115      C1122   1.514       .  S
C1115      C1116   1.407       .  A
C1116      C1117   1.420       .  A
C1116      H1121   1.076       .  S
C1117      C1118   1.492       .  A
C1118      C1119   1.524       .  S
C1119      F1123   1.385       .  S
C1119      F1124   1.356       .  S
C1119      F1125   1.378       .  S
C1122      F1126   1.378       .  S
C1122      F1127   1.378       .  S
C1122      F1128   1.369       .  S
C1129      C1130   1.412       .  A
C1129      C1134   1.421       .  A
C1129      H1136   1.083       .  S
C1130      C1131   1.412       .  A
C1131      C1138   1.513       .  S
C1131      C1132   1.396       .  A
C1132      C1133   1.412       .  A
C1132      H1137   1.080       .  S
C1133      C1134   1.446       .  A
C1134      C1135   1.526       .  S
C1135      F1139   1.385       .  S
C1135      F1140   1.381       .  S
C1135      F1141   1.381       .  S
C1138      F1142   1.375       .  S
C1138      F1143   1.369       .  S
C1138      F1144   1.384       .  S
C1145      C1146   1.412       .  A
C1145      C1150   1.418       .  A
C1145      H1152   1.081       .  S
C1146      C1147   1.447       .  A
C1147      C1154   1.527       .  S
C1147      C1148   1.427       .  A
C1148      C1149   1.412       .  A
C1148      H1153   1.079       .  S
C1149      C1150   1.444       .  A
C1150      C1151   1.510       .  S
C1151      F1155   1.384       .  S
C1151      F1156   1.359       .  S
C1151      F1157   1.383       .  S
C1154      F1158   1.378       .  S
C1154      F1159   1.383       .  S
C1154      F1160   1.383       .  S
C1161      C1162   1.423       .  A
C1161      C1166   1.416       .  A
C1161      H1168   1.059       .  S
C1162      C1163   1.442       .  A
C1163      C1170   1.516       .  S
C1163      C1164   1.432       .  A
C1164      C1165   1.415       .  A
C1164      H1169   1.076       .  S
C1165      C1166   1.437       .  A
C1166      C1167   1.548       .  S
C1167      F1171   1.378       .  S
C1167      F1172   1.337       .  S
C1167      F1173   1.362       .  S
C1170      F1174   1.373       .  S
C1170      F1175   1.376       .  S
C1170      F1176   1.378       .  S
C1177      C1178   1.416       .  A
C1177      C1182   1.424       .  A
C1177      H1184   1.079       .  S
C1178      C1179   1.432       .  A
C1179      C1186   1.517       .  S
C1179      C1180   1.428       .  A
C1180      C1181   1.428       .  A
C1180      H1185   1.080       .  S
C1181      C1182   1.452       .  A
C1182      C1183   1.522       .  S
C1183      F1187   1.386       .  S
C1183      F1188   1.373       .  S
C1183      F1189   1.361       .  S
C1186      F1190   1.383       .  S
C1186      F1191   1.375       .  S
C1186      F1192   1.385       .  S
C1193      C1194   1.417       .  A
C1193      C1198   1.415       .  A
C1193      H1200   1.081       .  S
C1194      C1195   1.451       .  A
C1195      C1202   1.505       .  S
C1195      C1196   1.444       .  A
C1196      C1197   1.418       .  A
C1196      H1201   1.073       .  S
C1197      C1198   1.431       .  A
C1198      C1199   1.513       .  S
C1199      F1203   1.380       .  S
C1199      F1204   1.371       .  S
C1199      F1205   1.376       .  S
C1202      F1206   1.370       .  S
C1202      F1207   1.373       .  S
C1202      F1208   1.384       .  S
C1209      C1210   1.418       .  A
C1209      C1214   1.418       .  A
C1209      H1216   1.071       .  S
C1210      C1211   1.449       .  A
C1211      C1218   1.539       .  S
C1211      C1212   1.423       .  A
C1212      C1213   1.421       .  A
C1212      H1217   1.057       .  S
C1213      C1214   1.441       .  A
C1214      C1215   1.521       .  S
C1215      F1219   1.385       .  S
C1215      F1220   1.364       .  S
C1215      F1221   1.382       .  S
C1218      F1222   1.377       .  S
C1218      F1223   1.377       .  S
C1218      F1224   1.380       .  S
C1225      C1226   1.403       .  A
C1225      C1230   1.403       .  A
C1225      H1232   1.085       .  S
C1226      C1227   1.455       .  A
C1227      C1234   1.522       .  S
C1227      C1228   1.394       .  A
C1228      C1229   1.393       .  A
C1228      H1233   1.080       .  S
C1229      C1230   1.439       .  A
C1230      C1231   1.522       .  S
C1231      F1235   1.390       .  S
C1231      F1236   1.380       .  S
C1231      F1237   1.375       .  S
C1234      F1238   1.368       .  S
C1234      F1239   1.373       .  S
C1234      F1240   1.388       .  S
C1241      C1242   1.423       .  A
C1241      C1246   1.417       .  A
C1241      H1248   1.082       .  S
C1242      C1243   1.457       .  A
C1243      C1250   1.524       .  S
C1243      C1244   1.438       .  A
C1244      C1245   1.415       .  A
C1244      H1249   1.076       .  S
C1245      C1246   1.427       .  A
C1246      C1247   1.510       .  S
C1247      F1251   1.369       .  S
C1247      F1252   1.368       .  S
C1247      F1253   1.381       .  S
C1250      F1254   1.372       .  S
C1250      F1255   1.375       .  S
C1250      F1256   1.385       .  S
C1257      C1258   1.421       .  A
C1257      C1262   1.425       .  A
C1257      H1264   1.082       .  S
C1258      C1259   1.444       .  A
C1259      C1266   1.557       .  S
C1259      C1260   1.412       .  A
C1260      C1261   1.423       .  A
C1260      H1265   1.057       .  S
C1261      C1262   1.440       .  A
C1262      C1263   1.521       .  S
C1263      F1267   1.386       .  S
C1263      F1268   1.380       .  S
C1263      F1269   1.375       .  S
C1266      F1270   1.384       .  S
C1266      F1271   1.364       .  S
C1266      F1272   1.380       .  S
C1273      C1274   1.406       .  A
C1273      C1278   1.422       .  A
C1273      H1280   1.082       .  S
C1274      C1275   1.424       .  A
C1275      C1282   1.510       .  S
C1275      C1276   1.437       .  A
C1276      C1277   1.435       .  A
C1276      H1281   1.068       .  S
C1277      C1278   1.454       .  A
C1278      C1279   1.511       .  S
C1279      F1283   1.383       .  S
C1279      F1284   1.366       .  S
C1279      F1285   1.375       .  S
C1282      F1286   1.356       .  S
C1282      F1287   1.374       .  S
C1282      F1288   1.376       .  S
C1289      C1290   1.436       .  A
C1289      C1294   1.448       .  A
C1289      H1296   1.074       .  S
C1290      C1291   1.454       .  A
C1291      C1298   1.510       .  S
C1291      C1292   1.418       .  A
C1292      C1293   1.403       .  A
C1292      H1297   1.072       .  S
C1293      C1294   1.431       .  A
C1294      C1295   1.502       .  S
C1295      F1299   1.369       .  S
C1295      F1300   1.364       .  S
C1295      F1301   1.382       .  S
C1298      F1302   1.328       .  S
C1298      F1303   1.344       .  S
C1298      F1304   1.380       .  S
C1305      C1306   1.394       .  A
C1305      C1310   1.417       .  A
C1305      H1312   1.073       .  S
C1306      C1307   1.445       .  A
C1307      C1314   1.528       .  S
C1307      C1308   1.397       .  A
C1308      C1309   1.401       .  A
C1308      H1313   1.076       .  S
C1309      C1310   1.462       .  A
C1310      C1311   1.532       .  S
C1311      F1315   1.385       .  S
C1311      F1316   1.382       .  S
C1311      F1317   1.359       .  S
C1314      F1318   1.359       .  S
C1314      F1319   1.380       .  S
C1314      F1320   1.387       .  S
C1321      C1322   1.422       .  A
C1321      C1326   1.411       .  A
C1321      H1328   1.065       .  S
C1322      C1323   1.434       .  A
C1323      C1330   1.527       .  S
C1323      C1324   1.414       .  A
C1324      C1325   1.418       .  A
C1324      H1329   1.082       .  S
C1325      C1326   1.449       .  A
C1326      C1327   1.542       .  S
C1327      F1331   1.386   1_565  S
C1327      F1332   1.374       .  S
C1327      F1333   1.367       .  S
C1330      F1334   1.378       .  S
C1330      F1335   1.377       .  S
C1330      F1336   1.385       .  S
C1337      C1338   1.427       .  A
C1337      C1342   1.405       .  A
C1337      H1344   1.070       .  S
C1338      C1339   1.444       .  A
C1339      C1346   1.539       .  S
C1339      C1340   1.424       .  A
C1340      C1341   1.409       .  A
C1340      H1345   1.075       .  S
C1341      C1342   1.398       .  A
C1342      C1343   1.540       .  S
C1343      F1347   1.370       .  S
C1343      F1348   1.356       .  S
C1343      F1349   1.383       .  S
C1346      F1350   1.373       .  S
C1346      F1351   1.378       .  S
C1346      F1352   1.383       .  S
C1353      C1358   1.402       .  A
C1353      H1360   1.068       .  S
C1354      C1355   1.446       .  A
C1355      C1362   1.525       .  S
C1355      C1356   1.419       .  A
C1356      H1361   1.080       .  S
C1357      C1358   1.435       .  A
C1358      C1359   1.529       .  S
C1359      F1363   1.385       .  S
C1359      F1364   1.373       .  S
C1359      F1365   1.377       .  S
C1362      F1366   1.363       .  S
C1362      F1367   1.383       .  S
C1362      F1368   1.385       .  S
C1369      C1370   1.380       .  A
C1369      C1374   1.408       .  A
C1369      H1376   1.061       .  S
C1370      C1371   1.442       .  A
C1371      C1378   1.532       .  S
C1371      C1372   1.418       .  A
C1372      C1373   1.423       .  A
C1372      H1377   1.074       .  S
C1373      C1374   1.453       .  A
C1374      C1375   1.507       .  S
C1375      F1379   1.376       .  S
C1375      F1380   1.373       .  S
C1375      F1381   1.375       .  S
C1378      F1382   1.382       .  S
C1378      F1383   1.380       .  S
C1378      F1384   1.386       .  S
C1385      C1390   1.429       .  A
C1385      H1392   1.076       .  S
C1386      C1387   1.428       .  A
C1387      C1394   1.508       .  S
C1387      C1388   1.409       .  A
C1388      H1393   1.068       .  S
C1389      C1390   1.460       .  A
C1390      C1391   1.519       .  S
C1391      F1395   1.388       .  S
C1391      F1396   1.374       .  S
C1391      F1397   1.370       .  S
C1394      F1398   1.320       .  S
C1394      F1399   1.369       .  S
C1394      F1400   1.368       .  S
C1401      C1402   1.415       .  A
C1401      C1406   1.420       .  A
C1401      H1408   1.076       .  S
C1402      C1403   1.436       .  A
C1403      C1410   1.516       .  S
C1403      C1404   1.431       .  A
C1404      C1405   1.428       .  A
C1404      H1409   1.080       .  S
C1405      C1406   1.452       .  A
C1406      C1407   1.528       .  S
C1407      F1411   1.386       .  S
C1407      F1412   1.370       .  S
C1407      F1413   1.369       .  S
C1410      F1414   1.383       .  S
C1410      F1415   1.369       .  S
C1410      F1416   1.385       .  S
C1417      C1418   1.402       .  A
C1417      C1422   1.427       .  A
C1417      H1424   1.077       .  S
C1419      C1426   1.517       .  S
C1419      C1420   1.403       .  A
C1420      C1421   1.416       .  A
C1420      H1425   1.066       .  S
C1422      C1423   1.544       .  S
C1423      F1427   1.377       .  S
C1423      F1428   1.378       .  S
C1423      F1429   1.386       .  S
C1426      F1430   1.380       .  S
C1426      F1431   1.378       .  S
C1426      F1432   1.387       .  S
C1433      C1434   1.428       .  A
C1433      C1438   1.412       .  A
C1433      H1440   1.074       .  S
C1434      C1435   1.444       .  A
C1435      C1442   1.530       .  S
C1435      C1436   1.420       .  A
C1436      C1437   1.410       .  A
C1436      H1441   1.082       .  S
C1437      C1438   1.437       .  A
C1438      C1439   1.544       .  S
C1439      F1443   1.386       .  S
C1439      F1444   1.380       .  S
C1439      F1445   1.377       .  S
C1442      F1446   1.373       .  S
C1442      F1447   1.385       .  S
C1442      F1448   1.379       .  S
C1449      C1450   1.401       .  A
C1449      C1454   1.435       .  A
C1449      H1456   1.060       .  S
C1451      C1458   1.529       .  S
C1451      C1452   1.429       .  A
C1452      C1453   1.433       .  A
C1452      H1457   1.075       .  S
C1454      C1455   1.514       .  S
C1455      F1459   1.382       .  S
C1455      F1460   1.360       .  S
C1455      F1461   1.381       .  S
C1458      F1462   1.369       .  S
C1458      F1463   1.373       .  S
C1458      F1464   1.381       .  S
C1465      C1466   1.424       .  A
C1465      C1470   1.395       .  A
C1465      H1472   1.069       .  S
C1466      C1467   1.449       .  A
C1467      C1474   1.527       .  S
C1467      C1468   1.431       .  A
C1468      C1469   1.421       .  A
C1468      H1473   1.082       .  S
C1469      C1470   1.394       .  A
C1470      C1471   1.512       .  S
C1471      F1475   1.366       .  S
C1471      F1476   1.361       .  S
C1471      F1477   1.383       .  S
C1474      F1478   1.374       .  S
C1474      F1479   1.379       .  S
C1474      F1480   1.385       .  S
C1481      C1486   1.406       .  A
C1481      H1488   1.084       .  S
C1482      C1483   1.448       .  A
C1483      C1490   1.491       .  S
C1483      C1484   1.415       .  A
C1484      H1489   1.082       .  S
C1485      C1486   1.422       .  A
C1486      C1487   1.507       .  S
C1487      F1491   1.345       .  S
C1487      F1492   1.372       .  S
C1487      F1493   1.378       .  S
C1490      F1494   1.377       .  S
C1490      F1495   1.373       .  S
C1490      F1496   1.388       .  S
C1497      C1498   1.420       .  A
C1497      H1504   1.077   1_556  S
C1499      C1506   1.550       .  S
C1499      C1500   1.398       .  A
C1500      C1501   1.414       .  A
C1500      H1505   1.064       .  S
C1501      C1502   1.437       .  A
C1502      C1503   1.528       .  S
C1503      F1508   1.374       .  S
C1506      F1510   1.371       .  S
C1506      F1512   1.386       .  S
