geometry optimzed in LAMMPS
_audit_creation_date              2020-12-01 
_audit_creation_method            'lammps2cif' 
_symmetry_space_group_name_H-M    'P1' 
_symmetry_Int_Tables_number       1 
_symmetry_cell_setting            triclinic 
loop_ 
_symmetry_equiv_pos_as_xyz 
  x,y,z 
_cell_length_a                    24.38080122 
_cell_length_b                    65.98611829947767 
_cell_length_c                    34.14357251325967 
_cell_angle_alpha                 90.1012620839583 
_cell_angle_beta                  89.96420047720535 
_cell_angle_gamma                 89.97893539408146 
loop_ 
_atom_site_label 
_atom_site_type_symbol 
_atom_site_fract_x 
_atom_site_fract_y 
_atom_site_fract_z 
_atom_site_charge 
O1          O  0.08310855  0.97603406  0.49767676    -0.69800
O2          O  0.14612703  0.92361823  0.49600606    -0.70000
O3          O  0.13471604  0.95314234  0.44304449    -0.69900
O4          O  0.09265168  0.94578617  0.55042674    -0.69900
O5          O  0.01504361  0.93326244  0.53052085    -0.69900
O6          O  0.05522417  0.94135803  0.42533195    -0.69900
O7          O  0.06842316  0.91095873  0.47668591    -0.69800
O8          O  0.00437704  0.96367867  0.47979919    -0.70000
V9          V  0.11264785  0.94945936  0.49647470     1.35200
V10         V  0.03745825  0.93750867  0.47844689     1.35200
C11         C  0.03324713  0.97884857  0.48939700     0.79400
C12         C  0.11839896  0.90840456  0.48584736     0.79500
C13         C  0.10144008  0.94831789  0.41602927     0.79400
C14         C  0.04591250  0.93834973  0.55834878     0.79300
O15         O  0.10524360  0.83651144  0.49229847    -0.69800
O16         O  0.15343765  0.78261891  0.49736336    -0.70000
O17         O  0.14375859  0.81233110  0.54994171    -0.69900
O18         O  0.11837458  0.80683820  0.43953806    -0.69900
O19         O  0.20246282  0.81632931  0.42904136    -0.69900
O20         O  0.22685841  0.82227968  0.53725018    -0.69900
O21         O  0.23764957  0.79185269  0.48637175    -0.69800
O22         O  0.18821741  0.84691994  0.48056714    -0.70000
V23         V  0.13180638  0.80982524  0.49457948     1.35200
V24         V  0.21210273  0.81924512  0.48348802     1.35200
C25         C  0.13762193  0.85086306  0.48529466     0.79400
C26         C  0.20307129  0.77794734  0.49329949     0.79500
C27         C  0.19090665  0.81761066  0.56206390     0.79400
C28         C  0.15710265  0.81044495  0.41566122     0.79300
O29         O  0.21346986  0.93523504  0.30234291    -0.69800
O30         O  0.23602629  0.93232866  0.19236275    -0.70000
O31         O  0.25294520  0.96033994  0.24759313    -0.69900
O32         O  0.19505863  0.90683492  0.24675967    -0.69900
O33         O  0.11287962  0.91910852  0.24016761    -0.69900
O34         O  0.17164749  0.97214974  0.23486721    -0.69900
O35         O  0.15249737  0.94268625  0.18266018    -0.69800
O36         O  0.13324923  0.94863742  0.29253623    -0.70000
V37         V  0.22275874  0.93383968  0.24711023     1.35200
V38         V  0.14413309  0.94538925  0.23777785     1.35200
C39         C  0.17014214  0.94293091  0.31617293     0.79400
C40         C  0.19825199  0.93715683  0.16883525     0.79500
C41         C  0.22207548  0.97529205  0.24065837     0.79400
C42         C  0.14387316  0.90390113  0.24355540     0.79300
O43         O  0.11202603  0.77721676  0.23212230    -0.69800
O44         O  0.16226596  0.83135390  0.23645335    -0.70000
O45         O  0.14126511  0.80280887  0.28999890    -0.69900
O46         O  0.13135671  0.80614736  0.17855157    -0.69900
O47         O  0.04740138  0.81674489  0.18449252    -0.69900
O48         O  0.05671836  0.81295660  0.29479693    -0.69900
O49         O  0.07845653  0.84220310  0.24205994    -0.69800
O50         O  0.02758136  0.78746805  0.23702578    -0.70000
V51         V  0.13506264  0.80456781  0.23440107     1.35200
V52         V  0.05419212  0.81466110  0.23947229     1.35200
C53         C  0.06161290  0.77303857  0.23365094     0.79400
C54         C  0.12940951  0.84597518  0.24014391     0.79500
C55         C  0.10049245  0.80747983  0.31128558     0.79400
C56         C  0.08713372  0.81192728  0.16263630     0.79300
O57         O  0.13697562  0.47168651  0.72923835    -0.69800
O58         O  0.08168368  0.41848876  0.73154059    -0.70000
O59         O  0.09197024  0.44793523  0.78472627    -0.69900
O60         O  0.12946145  0.44182821  0.67639663    -0.69900
O61         O  0.20973777  0.43063058  0.69361557    -0.69900
O62         O  0.17357737  0.43739377  0.80026024    -0.69900
O63         O  0.16177930  0.40694393  0.74833438    -0.69800
O64         O  0.21840248  0.46098654  0.74489145    -0.70000
V65         V  0.11162252  0.44477265  0.73076237     1.35200
V66         V  0.18922406  0.43413156  0.74649056     1.35200
C67         C  0.18665379  0.47548279  0.73600143     0.79400
C68         C  0.11151701  0.40370787  0.74074045     0.79500
C69         C  0.12704243  0.44360084  0.81085844     0.79400
C70         C  0.17689401  0.43555529  0.66685484     0.79300
O71         O  0.06426393  0.27831711  0.73133632    -0.69800
O72         O  0.12101994  0.33128686  0.73463854    -0.70000
O73         O  0.10962740  0.30158955  0.78712977    -0.69900
O74         O  0.07289872  0.30840072  0.67899896    -0.69900
O75         O  0.31300768  0.31651175  0.69883563    -0.69900
O76         O  0.02898214  0.31317821  0.80268692    -0.69900
O77         O  0.04058143  0.34315491  0.74983570    -0.69800
O78         O  0.30815269  0.28809132  0.75421239    -0.70000
V79         V  0.09035709  0.30512032  0.73327550     1.35200
V80         V  0.33686108  0.31488730  0.75149883     1.35200
C81         C  0.33886981  0.27329679  0.74531183     0.79400
C82         C  0.09109344  0.34622218  0.74280596     0.79500
C83         C  0.07471972  0.30623320  0.81319571     0.79400
C84         C  0.34540043  0.31153061  0.67170623     0.79300
O85         O  0.10647248  0.41738704  0.98934515    -0.69800
O86         O  0.04718958  0.47013992  0.99085640    -0.70000
O87         O  0.06044120  0.44120833  0.04452735    -0.69900
O88         O  0.09080846  0.44623256  0.93529589    -0.69900
O89         O  0.33729746  0.43399000  0.92055671    -0.69900
O90         O  0.30549682  0.43160290  0.02902049    -0.69900
O91         O  0.30467335  0.46074767  0.97489124    -0.69800
O92         O  0.02632952  0.40468878  0.97626010    -0.70000
V93         V  0.07463822  0.44346202  0.98971570     1.35200
V94         V  0.32360129  0.43276952  0.97513301     1.35200
C95         C  0.07717345  0.40205481  0.98270461     0.79400
C96         C  0.34118025  0.47389581  0.98218088     0.79500
C97         C  0.01398262  0.43487332  0.05588550     0.79400
C98         C  0.05505282  0.44109350  0.91021838     0.79300
O99         O  0.14469090  0.27705661  0.99486616    -0.69800
O100        O  0.07648172  0.32857442  0.98886352    -0.70000
O101        O  0.10417363  0.29999584  0.93677203    -0.69900
O102        O  0.11817152  0.30593311  0.04709197    -0.69900
O103        O  0.19907024  0.31907705  0.03882063    -0.69900
O104        O  0.18343224  0.31447385  0.92872872    -0.69900
O105        O  0.15619825  0.34286481  0.98226415    -0.69800
O106        O  0.22463248  0.29074628  0.98531560    -0.70000
V107        V  0.11250763  0.30314393  0.99175090     1.35200
V108        V  0.18926784  0.31657084  0.98396631     1.35200
C109        C  0.19586097  0.27501983  0.99079139     0.79400
C110        C  0.10440790  0.34450517  0.98464296     0.79500
C111        C  0.14124202  0.30646499  0.91400078     0.79400
C112        C  0.16157805  0.31321480  0.06169045     0.79300
O113        O  0.08918911  0.18437028  0.55540259    -0.69800
O114        O  0.06415948  0.18135767  0.44632994    -0.70000
O115        O  0.11005704  0.15655331  0.49941984    -0.69900
O116        O  0.04501611  0.20896467  0.50176430    -0.69900
O117        O  0.12465408  0.22243620  0.48994101    -0.69900
O118        O  0.18992450  0.17032235  0.48993690    -0.69900
O119        O  0.14454893  0.19431062  0.43490708    -0.69800
O120        O  0.16878330  0.19821919  0.54514922    -0.70000
V121        V  0.07878187  0.18302447  0.50055234     1.35200
V122        V  0.15548349  0.19605518  0.49020934     1.35200
C123        C  0.13274513  0.19190480  0.56895485     0.79400
C124        C  0.09933131  0.18755044  0.42208550     0.79500
C125        C  0.16128117  0.15458245  0.49436531     0.79400
C126        C  0.07378205  0.22457621  0.49561551     0.79300
O127        O  0.22009919  0.02925750  0.48134875    -0.69800
O128        O  0.15746560  0.08187000  0.48045465    -0.70000
O129        O  0.20875244  0.05858529  0.42700187    -0.69900
O130        O  0.16934367  0.05311921  0.53475770    -0.69900
O131        O  0.24866261  0.06551309  0.55121617    -0.69900
O132        O  0.28750215  0.07113364  0.44434745    -0.69900
O133        O  0.23594037  0.09481348  0.49733798    -0.69800
O134        O  0.29891373  0.04197648  0.49800754    -0.70000
V135        V  0.19049858  0.05590882  0.48116671     1.35200
V136        V  0.26613868  0.06814495  0.49740875     1.35200
C137        C  0.27011357  0.02662390  0.48956523     0.79400
C138        C  0.18569006  0.09724625  0.48910212     0.79500
C139        C  0.25512731  0.06574302  0.41748429     0.79400
C140        C  0.20248797  0.05862264  0.56126439     0.79300
O141        O  0.11605562  0.02895422  0.73846034    -0.69800
O142        O  0.18533255  0.08062909  0.73874521    -0.70000
O143        O  0.14011436  0.05666704  0.79334018    -0.69900
O144        O  0.16207232  0.05290458  0.68367666    -0.69900
O145        O  0.08440682  0.06817036  0.67352132    -0.69900
O146        O  0.05932699  0.06965789  0.78377840    -0.69900
O147        O  0.10560132  0.09484139  0.73146331    -0.69800
O148        O  0.03780382  0.04334788  0.72596681    -0.70000
V149        V  0.14933570  0.05503317  0.73831420     1.35200
V150        V  0.07335884  0.06876847  0.72884242     1.35200
C151        C  0.06505360  0.02743242  0.73210282     0.79400
C152        C  0.15688644  0.09656961  0.73585031     0.79500
C153        C  0.09579049  0.06350799  0.80728665     0.79400
C154        C  0.12755498  0.06014960  0.65989331     0.79300
O155        O  0.22581004  0.15767646  0.73794876    -0.69800
O156        O  0.27884392  0.21191103  0.74155198    -0.70000
O157        O  0.26375495  0.18262792  0.79426367    -0.69900
O158        O  0.24233821  0.18720862  0.68490097    -0.69900
O159        O  0.15887118  0.19765134  0.69466462    -0.69900
O160        O  0.18114988  0.19370231  0.80499049    -0.69900
O161        O  0.19575220  0.22278631  0.75112386    -0.69800
O162        O  0.14324392  0.16885159  0.74859668    -0.70000
V163        V  0.25101525  0.18502900  0.73986139     1.35200
V164        V  0.17134638  0.19553049  0.74963845     1.35200
C165        C  0.17517181  0.15413287  0.74258629     0.79400
C166        C  0.24617089  0.22655032  0.74717225     0.79500
C167        C  0.22689662  0.18780878  0.81828397     0.79400
C168        C  0.19709393  0.19307280  0.67108081     0.79300
O169        O  0.21215042  0.52864652  0.97842147    -0.69800
O170        O  0.16477747  0.58282994  0.98436434    -0.70000
O171        O  0.20333582  0.55900147  0.92647136    -0.69900
O172        O  0.17664354  0.55293924  0.03653687    -0.69900
O173        O  0.26105334  0.56175384  0.04791540    -0.69900
O174        O  0.28612215  0.56892617  0.94027645    -0.69900
O175        O  0.24762588  0.59283180  0.99772683    -0.69800
O176        O  0.29629183  0.53781008  0.98977242    -0.70000
V177        V  0.19082791  0.55602753  0.98169167     1.35200
V178        V  0.27108795  0.56518239  0.99367978     1.35200
C179        C  0.26174954  0.52389434  0.98274372     0.79400
C180        C  0.19738298  0.59702828  0.99215637     0.79500
C181        C  0.25022067  0.56491981  0.91502041     0.79400
C182        C  0.21503110  0.55636765  0.06080415     0.79300
O183        O  0.11138749  0.68699776  0.05025748    -0.69800
O184        O  0.09423069  0.68295893  0.94019779    -0.70000
O185        O  0.13206585  0.65794142  0.99657095    -0.69900
O186        O  0.07549008  0.71180066  0.99367890    -0.69900
O187        O  0.15825796  0.72289242  0.98353572    -0.69900
O188        O  0.21475578  0.66980025  0.99039249    -0.69900
O189        O  0.17800822  0.69332936  0.93177903    -0.69800
O190        O  0.19323391  0.69932879  0.04209854    -0.70000
V191        V  0.10492055  0.68506131  0.99502944     1.35200
V192        V  0.18442055  0.69610117  0.98711917     1.35200
C193        C  0.15475027  0.69414329  0.06492399     0.79400
C194        C  0.13275770  0.68771010  0.91724849     0.79500
C195        C  0.18332952  0.65480179  0.99428028     0.79400
C196        C  0.10782295  0.72646930  0.98766053     0.79300
O197        O  0.20605732  0.58566721  0.23891521    -0.69800
O198        O  0.15087924  0.53248890  0.24553048    -0.70000
O199        O  0.18968601  0.55558495  0.18717680    -0.69900
O200        O  0.16387177  0.56275203  0.29710733    -0.69900
O201        O  0.08184556  0.57351394  0.28337107    -0.69900
O202        O  0.10766176  0.56698880  0.17554388    -0.69900
O203        O  0.06852580  0.54309112  0.23235481    -0.69800
O204        O  0.12435160  0.59737057  0.22732534    -0.70000
V205        V  0.17607283  0.55937817  0.24193722     1.35200
V206        V  0.09726871  0.57008277  0.22987073     1.35200
C207        C  0.17527745  0.60058095  0.23232223     0.79400
C208        C  0.10097147  0.52858448  0.24008041     0.79500
C209        C  0.15220059  0.55998116  0.16280330     0.79400
C210        C  0.11724301  0.56895399  0.30862145     0.79300
O211        O  0.22540505  0.72640215  0.24753916    -0.69800
O212        O  0.16722024  0.67330627  0.24555430    -0.70000
O213        O  0.21352054  0.69685408  0.30113683    -0.69900
O214        O  0.18149849  0.70229905  0.19186230    -0.69900
O215        O  0.26373018  0.69151742  0.17859946    -0.69900
O216        O  0.29324500  0.68436564  0.28588272    -0.69900
O217        O  0.24711461  0.66117524  0.22977378    -0.69800
O218        O  0.30692222  0.71473748  0.23501834    -0.70000
V219        V  0.19848425  0.69950608  0.24630424     1.35200
V220        V  0.27610520  0.68813280  0.23260707     1.35200
C221        C  0.27573168  0.72971085  0.24199138     0.79400
C222        C  0.19652627  0.65825775  0.23672404     0.79500
C223        C  0.25951360  0.68972038  0.31180973     0.79400
C224        C  0.21793544  0.69779607  0.16677112     0.79300
O225        O  0.26382735  0.91896657  0.73976556    -0.69800
O226        O  0.33258558  0.97037183  0.73504263    -0.70000
O227        O  0.30178989  0.94285593  0.68178870    -0.69900
O228        O  0.29571640  0.94645519  0.79286985    -0.69900
O229        O  0.99437560  0.93234621  0.80122106    -0.69900
O230        O  0.05581760  0.92712804  0.69921282    -0.69900
O231        O  0.05800494  0.95536338  0.75499034    -0.69800
O232        O  0.99167159  0.90362678  0.74557437    -0.70000
V233        V  0.30002388  0.94435950  0.73743435     1.35200
V234        V  0.02343586  0.92980450  0.74977715     1.35200
C235        C  0.29183585  0.90291511  0.74122889     0.79400
C236        C  0.03348426  0.97100939  0.74305538     0.79500
C237        C  0.02970633  0.93339461  0.66965180     0.79400
C238        C  0.33418195  0.93939030  0.81366511     0.79300
O239        O  0.23277074  0.77747154  0.73681963    -0.69800
O240        O  0.29263447  0.83017962  0.73305798    -0.70000
O241        O  0.28530112  0.80169208  0.78828199    -0.69900
O242        O  0.23854261  0.80654862  0.68199145    -0.69900
O243        O  0.16052853  0.81880326  0.70178332    -0.69900
O244        O  0.20653675  0.81364818  0.80721657    -0.69900
O245        O  0.21510232  0.84298471  0.75248390    -0.69800
O246        O  0.15405761  0.78953099  0.75560350    -0.70000
V247        V  0.26069119  0.80418009  0.73539746     1.35200
V248        V  0.18563120  0.81604478  0.75398863     1.35200
C249        C  0.18342174  0.77443171  0.74613622     0.79400
C250        C  0.26467961  0.84552555  0.74215370     0.79500
C251        C  0.25357797  0.80705802  0.81583049     0.79400
C252        C  0.19128566  0.81344986  0.67396736     0.79300
O253        O  0.28738670  0.97372313  0.99731658    -0.69800
O254        O  0.34348312  0.92009373  0.99467699    -0.70000
O255        O  0.32179796  0.94820351  0.94051992    -0.69900
O256        O  0.30799622  0.94517039  0.05168964    -0.69900
O257        O  0.22536853  0.93338650  0.04467175    -0.69900
O258        O  0.23817487  0.93717409  0.93465799    -0.69900
O259        O  0.26087838  0.90828146  0.98772763    -0.69800
O260        O  0.20429905  0.96220931  0.99154214    -0.70000
V261        V  0.31353875  0.94660650  0.99597481     1.35200
V262        V  0.23386439  0.93545248  0.98980511     1.35200
C263        C  0.23653033  0.97716468  0.99488971     0.79400
C264        C  0.31205865  0.90507975  0.99027839     0.79500
C265        C  0.28199736  0.94309796  0.91881027     0.79400
C266        C  0.26389852  0.93883768  0.06698975     0.79300
O267        O  0.02976104  0.81480608  0.92643219    -0.69800
O268        O  0.06000620  0.81679624  0.03594363    -0.70000
O269        O  0.05995906  0.78798874  0.98095820    -0.69900
O270        O  0.02987288  0.84413380  0.98174670    -0.69900
O271        O  0.29684567  0.83217938  0.99272599    -0.69900
O272        O  0.97503342  0.78134028  0.99527936    -0.69900
O273        O  0.97360070  0.81160874  0.04798263    -0.69800
O274        O  0.30412501  0.80341670  0.93747950    -0.70000
V275        V  0.04318398  0.81584750  0.98143735     1.35200
V276        V  0.32578457  0.80556795  0.99088367     1.35200
C277        C  0.98222861  0.81043950  0.91418429     0.79400
C278        C  0.02170058  0.81447744  0.06054722     0.79500
C279        C  0.02318473  0.77511561  0.98863758     0.79400
C280        C  0.98168903  0.85058104  0.98699364     0.79300
O281        O  0.28294407  0.56259226  0.67067768    -0.69800
O282        O  0.22410155  0.56703099  0.77356466    -0.70000
O283        O  0.27020445  0.59314526  0.72242215    -0.69900
O284        O  0.23752109  0.53691034  0.72229989    -0.69900
O285        O  0.31753437  0.53040315  0.74730412    -0.69900
O286        O  0.04556294  0.58275716  0.75238338    -0.69900
O287        O  0.30522474  0.56128138  0.79737375    -0.69800
O288        O  0.36320021  0.55571065  0.69495382    -0.70000
V289        V  0.25529511  0.56483181  0.72260168     1.35200
V290        V  0.33274525  0.55862134  0.74574715     1.35200
C291        C  0.33299459  0.55829753  0.66537228     0.79400
C292        C  0.25470323  0.56464446  0.80301517     0.79500
C293        C  0.31672468  0.59936718  0.73352189     0.79400
C294        C  0.27142566  0.52415212  0.73565892     0.79300
O295        O  0.08955875  0.68776701  0.68241322    -0.69800
O296        O  0.10636399  0.68428488  0.79246049    -0.70000
O297        O  0.07207363  0.65872465  0.73617480    -0.69900
O298        O  0.12255955  0.71325830  0.73919065    -0.69900
O299        O  0.03891619  0.72369213  0.74792760    -0.69900
O300        O  0.98816938  0.66932256  0.74272896    -0.69900
O301        O  0.02204596  0.69410774  0.80064488    -0.69800
O302        O  0.00595456  0.69853109  0.68992557    -0.70000
V303        V  0.09594237  0.68619992  0.73766346     1.35200
V304        V  0.01538945  0.69624111  0.74515342     1.35200
C305        C  0.04499438  0.69355180  0.66735852     0.79400
C306        C  0.06740232  0.68868562  0.81531115     0.79500
C307        C  0.02134900  0.65477812  0.73874928     0.79400
C308        C  0.08935471  0.72774246  0.74474855     0.79300
O309        O  0.04564090  0.53148334  0.47418308    -0.69800
O310        O  0.01975168  0.58809317  0.48119599    -0.70000
O311        O  0.06124604  0.56314840  0.42630376    -0.69900
O312        O  0.00505702  0.55662978  0.52927914    -0.69900
O313        O  0.08667801  0.56182191  0.55280795    -0.69900
O314        O  0.14358597  0.56659613  0.44968465    -0.69900
O315        O  0.10261333  0.59274840  0.50286099    -0.69800
O316        O  0.12662662  0.53606481  0.49916606    -0.70000
V317        V  0.03450014  0.55993600  0.47817037     1.35200
V318        V  0.11322456  0.56423752  0.50074676     1.35200
C319        C  0.09088736  0.52417726  0.48520920     0.79400
C320        C  0.05670134  0.60003647  0.49306815     0.79500
C321        C  0.11213495  0.56559219  0.42042064     0.79400
C322        C  0.03635003  0.55832424  0.55859347     0.79300
O323        O  0.27003572  0.68702068  0.55747257    -0.69800
O324        O  0.22538669  0.68695645  0.45128927    -0.70000
O325        O  0.25774285  0.65826471  0.50211309    -0.69900
O326        O  0.23904956  0.71532673  0.50587045    -0.69900
O327        O  0.99971355  0.72077117  0.48255199    -0.69900
O328        O  0.02560546  0.66416513  0.48838106    -0.69900
O329        O  0.00086310  0.69011070  0.43038572    -0.69800
O330        O  0.02332234  0.69463139  0.54069188    -0.70000
V331        V  0.24979533  0.68694493  0.50393686     1.35200
V332        V  0.01075989  0.69231033  0.48570598     1.35200
C333        C  0.98337632  0.69255507  0.56411278     0.79400
C334        C  0.25991450  0.68882890  0.42405600     0.79500
C335        C  0.98650520  0.65185300  0.49315323     0.79400
C336        C  0.27748063  0.72714623  0.49589181     0.79300
O337        O  0.18632201  0.43565535  0.42108057    -0.69800
O338        O  0.14768842  0.43050553  0.52770379    -0.70000
O339        O  0.14010002  0.46011451  0.47478911    -0.69900
O340        O  0.19701820  0.40590553  0.47493332    -0.69900
O341        O  0.27713081  0.41802561  0.49015474    -0.69900
O342        O  0.22070507  0.47083215  0.49249219    -0.69900
O343        O  0.22842216  0.44113781  0.54518390    -0.69800
O344        O  0.26642787  0.44748831  0.43709084    -0.70000
V345        V  0.16938270  0.43317696  0.47487743     1.35200
V346        V  0.24655716  0.44411548  0.49092317     1.35200
C347        C  0.23215950  0.44265112  0.41072776     0.79400
C348        C  0.18056599  0.43529141  0.55457239     0.79500
C349        C  0.17150382  0.47461779  0.48438424     0.79400
C350        C  0.24748926  0.40299249  0.48234836     0.79300
O351        O  0.00094008  0.34869694  0.47903362    -0.69800
O352        O  0.07467620  0.29762532  0.47808588    -0.70000
O353        O  0.02348597  0.32034758  0.42467503    -0.69900
O354        O  0.05501925  0.32584923  0.53217553    -0.69900
O355        O  0.30122768  0.30708972  0.54817421    -0.69900
O356        O  0.27276583  0.30219770  0.43845753    -0.69900
O357        O  0.32210560  0.27911273  0.49328122    -0.69800
O358        O  0.25003338  0.32989475  0.49349157    -0.70000
V359        V  0.03685873  0.32293209  0.47875841     1.35200
V360        V  0.28799139  0.30485753  0.49313800     1.35200
C361        C  0.27599860  0.34596846  0.48631875     0.79400
C362        C  0.04813573  0.28155086  0.48508856     0.79500
C363        C  0.30795395  0.30847702  0.41396987     0.79400
C364        C  0.02356397  0.31864245  0.55784550     0.79300
O365        O  0.30909843  0.47485808  0.23034047    -0.69800
O366        O  0.25997490  0.42067164  0.23336750    -0.70000
O367        O  0.26960148  0.45021211  0.28655267    -0.69900
O368        O  0.30148927  0.44476118  0.17740538    -0.69900
O369        O  0.05158563  0.43625157  0.19413965    -0.69900
O370        O  0.01371029  0.44014471  0.30123070    -0.69900
O371        O  0.01125106  0.41011062  0.24739977    -0.69800
O372        O  0.05172344  0.46602156  0.24730035    -0.70000
V373        V  0.28672030  0.44746586  0.23218434     1.35200
V374        V  0.03039829  0.43825874  0.24725765     1.35200
C375        C  0.01694031  0.47952669  0.23830151     0.79400
C376        C  0.29217336  0.40623429  0.24052038     0.79500
C377        C  0.30583559  0.44590276  0.31185887     0.79400
C378        C  0.01661972  0.43930589  0.16766913     0.79300
O379        O  0.24770397  0.28010147  0.23086899    -0.69800
O380        O  0.98687956  0.33192551  0.23703955    -0.70000
O381        O  0.28377609  0.30397963  0.28916441    -0.69900
O382        O  0.26986064  0.30930796  0.17875221    -0.69900
O383        O  0.18671329  0.32052001  0.18651066    -0.69900
O384        O  0.20224385  0.31673279  0.29673863    -0.69900
O385        O  0.22493521  0.34547165  0.24300854    -0.69800
O386        O  0.16558589  0.29204231  0.24005898    -0.70000
V387        V  0.27546623  0.30684245  0.23411921     1.35200
V388        V  0.19650674  0.31852885  0.24144100     1.35200
C389        C  0.19689096  0.27699981  0.23454303     0.79400
C390        C  0.27631953  0.34829432  0.24082528     0.79500
C391        C  0.24536219  0.30955898  0.31171561     0.79400
C392        C  0.22525613  0.31532157  0.16388136     0.79300
O393        O  0.09312426  0.02817206  0.98799298    -0.69800
O394        O  0.04060473  0.08238716  0.98897979    -0.70000
O395        O  0.07514099  0.05676720  0.93313672    -0.69900
O396        O  0.05852779  0.05412352  0.04372594    -0.69900
O397        O  0.14123904  0.06574297  0.05125530    -0.69900
O398        O  0.15952983  0.06662509  0.94068407    -0.69900
O399        O  0.12413005  0.09351446  0.99440805    -0.69800
O400        O  0.17623158  0.03905818  0.99711892    -0.70000
V401        V  0.06852576  0.05554586  0.98861586     1.35200
V402        V  0.14866404  0.06604874  0.99575584     1.35200
C403        C  0.14352047  0.02434554  0.99258224     0.79400
C404        C  0.07331013  0.09717326  0.99130074     0.79500
C405        C  0.12036092  0.06205638  0.91813102     0.79400
C406        C  0.09678517  0.05971730  0.06631350     0.79300
O407        O  0.01007418  0.15847032  0.99155341    -0.69800
O408        O  0.26365691  0.21488084  0.99599097    -0.70000
O409        O  0.27015546  0.18519628  0.94261185    -0.69900
O410        O  0.99912844  0.18809659  0.04530947    -0.69900
O411        O  0.07946583  0.19974020  0.02936197    -0.69900
O412        O  0.04460494  0.19389604  0.92189248    -0.69900
O413        O  0.03254664  0.22367585  0.97499403    -0.69800
O414        O  0.09069999  0.17011890  0.97651537    -0.70000
V415        V  0.98282574  0.18549013  0.99091538     1.35200
V416        V  0.06016095  0.19666749  0.97597462     1.35200
C417        C  0.06026849  0.15517632  0.98448322     0.79400
C418        C  0.98245607  0.22692999  0.98247321     0.79500
C419        C  0.99829282  0.18743733  0.91109641     0.79400
C420        C  0.04573788  0.19468444  0.05561235     0.79300
O421        O  0.25631347  0.07295164  0.17145456    -0.69800
O422        O  0.22016422  0.07542680  0.27948635    -0.70000
O423        O  0.26976369  0.10086584  0.22869813    -0.69900
O424        O  0.20831547  0.04785780  0.22280967    -0.69900
O425        O  0.03044231  0.02901986  0.24756740    -0.69900
O426        O  0.07731183  0.08399851  0.24737007    -0.69900
O427        O  0.03960181  0.05826071  0.30233189    -0.69800
O428        O  0.06784342  0.05504887  0.19260487    -0.70000
V429        V  0.24025588  0.07411443  0.22585672     1.35200
V430        V  0.05223185  0.05675006  0.24726608     1.35200
C431        C  0.03066087  0.05958158  0.16826578     0.79400
C432        C  0.25369804  0.06964402  0.30529853     0.79500
C433        C  0.04334824  0.09817926  0.24199084     0.79400
C434        C  0.23757397  0.03258290  0.23072735     0.79300
O435        O  0.05642256  0.22535691  0.24706855    -0.69800
O436        O  0.01141065  0.17024142  0.24936249    -0.70000
O437        O  0.05616370  0.19588058  0.30135881    -0.69900
O438        O  0.01151137  0.19937795  0.19503475    -0.69900
O439        O  0.09283800  0.18973810  0.17671735    -0.69900
O440        O  0.13836348  0.18732394  0.28303074    -0.69900
O441        O  0.09350237  0.16087050  0.23229558    -0.69800
O442        O  0.13748456  0.21594349  0.22779000    -0.70000
V443        V  0.03549371  0.19756989  0.24786631     1.35200
V444        V  0.11390724  0.18863730  0.23023796     1.35200
C445        C  0.10483290  0.23000039  0.23733660     0.79400
C446        C  0.04484340  0.15619808  0.24144648     0.79500
C447        C  0.10484617  0.19109159  0.31029114     0.79400
C448        C  0.04445039  0.19491183  0.16778985     0.79300
C449        C  0.02660304  0.13494684  0.24258629    -0.14500
C450        C  0.06208657  0.11939319  0.24164532    -0.29600
H451        H  0.27337665  0.13978553  0.24351578     0.14600
H452        H  0.10597135  0.12226184  0.24102201     0.15100
C453        C  0.06225616  0.19586298  0.09702691    -0.14500
C454        C  0.02614188  0.19527340  0.12664447    -0.29600
H455        H  0.10580923  0.19722644  0.10329097     0.14600
H456        H  0.98238806  0.19505037  0.12062065     0.15100
C457        C  0.03973996  0.05870924  0.12562223    -0.14500
C458        C  0.08981648  0.05942901  0.10928439    -0.29600
H459        H  0.00362417  0.05858509  0.10697522     0.14600
H460        H  0.12598942  0.06084378  0.12767027     0.15100
C461        C  0.08339656  0.13445877  0.98573360    -0.14500
C462        C  0.05144263  0.11804351  0.99037856    -0.29600
H463        H  0.12744780  0.13267217  0.98231733     0.14600
H464        H  0.00724491  0.11986469  0.99257490     0.15100
C465        C  0.17598481  0.25612330  0.23237007    -0.14500
C466        C  0.12303987  0.25130891  0.23790897    -0.29600
H467        H  0.20581202  0.24422096  0.22673089     0.14600
H468        H  0.09308602  0.26306212  0.24426024     0.15100
C469        C  0.26963588  0.38549399  0.24119569    -0.14500
C470        C  0.30075904  0.36878404  0.24232791    -0.29600
H471        H  0.22532426  0.38399076  0.23922644     0.14600
H472        H  0.34516422  0.37012569  0.24308676     0.15100
C473        C  0.30008131  0.30687879  0.37146010    -0.14500
C474        C  0.25067079  0.30817855  0.35460312    -0.29600
H475        H  0.00925256  0.31018949  0.35257662     0.14600
H476        H  0.21416498  0.30992146  0.37258222     0.15100
C477        C  0.24382175  0.44482530  0.36854908    -0.14500
C478        C  0.29473319  0.44673522  0.35432291    -0.29600
H479        H  0.20959747  0.44325752  0.34837731     0.14600
H480        H  0.32945409  0.44693694  0.37426696     0.15100
C481        C  0.24644929  0.36547848  0.48493006    -0.14500
C482        C  0.27377341  0.38294884  0.48186416    -0.29600
H483        H  0.20201742  0.36551082  0.48744965     0.14600
H484        H  0.31835286  0.38273414  0.48102280     0.15100
C485        C  0.10263060  0.50236573  0.48119135    -0.14500
C486        C  0.15383805  0.49575845  0.48708499    -0.29600
H487        H  0.07021859  0.49196171  0.47268855     0.14600
H488        H  0.18572017  0.50654449  0.49495346     0.15100
C489        C  0.04698078  0.62200974  0.49511907    -0.14500
C490        C  0.99617897  0.62984903  0.49337569    -0.29600
H491        H  0.08228713  0.63191705  0.49837578     0.14600
H492        H  0.96075435  0.61988857  0.49181787     0.15100
C493        C  0.03928672  0.69395046  0.62435923    -0.14500
C494        C  0.99002005  0.69410933  0.60694206    -0.29600
H495        H  0.07624948  0.69266769  0.60672296     0.14600
H496        H  0.30067239  0.69016347  0.62979702     0.15100
C497        C  0.35673430  0.55682575  0.62583811    -0.14500
C498        C  0.01378631  0.55685546  0.59847915    -0.29600
H499        H  0.40117437  0.55663598  0.62335637     0.14600
H500        H  0.28117737  0.55570505  0.59591172     0.15100
C501        C  0.03403288  0.61780048  0.74127451    -0.14500
C502        C  0.00058510  0.63378181  0.73707422    -0.29600
H503        H  0.07746731  0.62024512  0.74665443     0.14600
H504        H  0.95674868  0.63145227  0.73351703     0.15100
C505        C  0.21637562  0.99829886  0.99586611    -0.14500
C506        C  0.16300747  0.00310707  0.99238227    -0.29600
H507        H  0.24663998  0.01026923  0.99916582     0.14600
H508        H  0.13271290  0.99117169  0.98884625     0.15100
C509        C  0.33573418  0.88447850  0.98780376    -0.14500
C510        C  0.30445770  0.86776673  0.98751128    -0.29600
H511        H  0.38012343  0.88305346  0.98675765     0.14600
H512        H  0.00672586  0.88257449  0.98810009     0.15100
C513        C  0.16212269  0.75353328  0.74508884    -0.14500
C514        C  0.10864419  0.74892876  0.74774083    -0.29600
H515        H  0.19185172  0.74149710  0.74034155     0.14600
H516        H  0.07850726  0.76087774  0.75188014     0.15100
C517        C  0.26995566  0.80603176  0.85735615    -0.14500
C518        C  0.32244762  0.80729416  0.86891877    -0.29600
H519        H  0.23747354  0.80597026  0.87917143     0.14600
H520        H  0.35480335  0.80877604  0.84720541     0.15100
C521        C  0.28541795  0.94375305  0.87589546    -0.14500
C522        C  0.33257301  0.94059617  0.85670597    -0.29600
H523        H  0.24728620  0.94511828  0.85963475     0.14600
H524        H  0.87926629  0.94458263  0.84792422     0.15100
C525        C  0.26368894  0.88310041  0.74327819    -0.14500
C526        C  0.29127158  0.86559557  0.74068120    -0.29600
H527        H  0.21934195  0.88293824  0.74645822     0.14600
H528        H  0.33542589  0.86588884  0.73628196     0.15100
C529        C  0.24092809  0.68969311  0.38307076    -0.14500
C530        C  0.27604131  0.68803030  0.35313856    -0.29600
H531        H  0.19739392  0.69169538  0.37746345     0.14600
H532        H  0.31916448  0.68516320  0.35903001     0.15100
C533        C  0.13449124  0.56669922  0.38028643    -0.14500
C534        C  0.10096326  0.57013547  0.35002004    -0.29600
H535        H  0.17804405  0.56422419  0.37553040     0.14600
H536        H  0.05789739  0.57330710  0.35566671     0.15100
C537        C  0.03171966  0.50118639  0.23658066    -0.14500
C538        C  0.08324286  0.50732906  0.24285930    -0.29600
H539        H  0.00009291  0.51214681  0.22924720     0.14600
H540        H  0.11462125  0.49620423  0.24987502     0.15100
C541        C  0.17075270  0.63800115  0.23478858    -0.14500
C542        C  0.20010178  0.62098110  0.23100818    -0.29600
H543        H  0.12649209  0.63705799  0.23814725     0.14600
H544        H  0.24454973  0.62191415  0.22933786     0.15100
C545        C  0.12502712  0.68715955  0.87447557    -0.14500
C546        C  0.07480974  0.68776624  0.85811870    -0.29600
H547        H  0.16138350  0.68754368  0.85606536     0.14600
H548        H  0.03852668  0.68863757  0.87654989     0.15100
C549        C  0.08916159  0.74751130  0.98533308    -0.14500
C550        C  0.03695513  0.75340339  0.99028036    -0.29600
H551        H  0.12075985  0.75875466  0.97967524     0.14600
H552        H  0.00491056  0.74239867  0.99627982     0.15100
C553        C  0.16011974  0.69596619  0.10778506    -0.14500
C554        C  0.20896881  0.69933670  0.12438452    -0.29600
H555        H  0.12443886  0.69298513  0.12598419     0.14600
H556        H  0.24514117  0.70091942  0.10601477     0.15100
C557        C  0.23209715  0.56516860  0.84315063    -0.14500
C558        C  0.26631377  0.56647389  0.87369096    -0.29600
H559        H  0.18810245  0.56399020  0.84763630     0.14600
H560        H  0.30994299  0.56848322  0.86829565     0.15100
C561        C  0.20767644  0.55489683  0.10345654    -0.14500
C562        C  0.15872824  0.55749034  0.12021370    -0.29600
H563        H  0.24420549  0.55405469  0.12161721     0.14600
H564        H  0.12270679  0.55963203  0.10192611     0.15100
C565        C  0.17529215  0.61775379  0.99417770    -0.14500
C566        C  0.20699073  0.63425096  0.99555714    -0.29600
H567        H  0.13099776  0.61945606  0.99257089     0.14600
H568        H  0.25136161  0.63268860  0.99590431     0.15100
C569        C  0.23798718  0.18760988  0.86077580    -0.14500
C570        C  0.28990387  0.18767307  0.87407911    -0.29600
H571        H  0.20382331  0.18884475  0.88108942     0.14600
H572        H  0.02073599  0.18724590  0.84893589     0.15100
C573        C  0.08647048  0.06396673  0.84998792    -0.14500
C574        C  0.12840423  0.06256084  0.87538141    -0.29600
H575        H  0.04474125  0.06564593  0.86070950     0.14600
H576        H  0.17030714  0.06214438  0.86452619     0.15100
C577        C  0.03702292  0.00772862  0.73177567    -0.14500
C578        C  0.06137616  0.99075076  0.74439211    -0.29600
H579        H  0.99488318  0.00728355  0.72144508     0.14600
H580        H  0.10315027  0.99125784  0.75543817     0.15100
C581        C  0.15216923  0.13355852  0.74068971    -0.14500
C582        C  0.18286858  0.11673601  0.73775425    -0.29600
H583        H  0.10775576  0.13228855  0.74208300     0.14600
H584        H  0.22734199  0.11775494  0.73743225     0.15100
C585        C  0.27259429  0.06739864  0.37622087    -0.14500
C586        C  0.23657367  0.06918789  0.34678623    -0.29600
H587        H  0.31631780  0.06758089  0.37002852     0.14600
H588        H  0.19301041  0.07027470  0.35324914     0.15100
C589        C  0.18900681  0.05722377  0.60322001    -0.14500
C590        C  0.13787873  0.05955950  0.61724177    -0.29600
H591        H  0.22318219  0.05603038  0.62351517     0.14600
H592        H  0.10402510  0.06239061  0.59730262     0.15100
C593        C  0.08538631  0.18748897  0.38018357    -0.14500
C594        C  0.12233936  0.19008128  0.35156590    -0.29600
H595        H  0.04248787  0.18524383  0.37265269     0.14600
H596        H  0.16574306  0.19117732  0.35843922     0.15100
C597        C  0.07567756  0.26167803  0.48586993    -0.14500
C598        C  0.04784969  0.24468992  0.49480678    -0.29600
H599        H  0.11923816  0.26100819  0.47925721     0.14600
H600        H  0.00425220  0.24544990  0.50129572     0.15100
C601        C  0.14018215  0.19304852  0.61171203    -0.14500
C602        C  0.18985619  0.19418233  0.62829223    -0.29600
H603        H  0.10402625  0.19141111  0.63008139     0.14600
H604        H  0.22632904  0.19433618  0.60997618     0.15100
C605        C  0.18800965  0.13454743  0.49368608    -0.14500
C606        C  0.15930803  0.11734063  0.48993757    -0.29600
H607        H  0.23250495  0.13400531  0.49524750     0.14600
H608        H  0.11497512  0.11796960  0.48683866     0.15100
C609        C  0.16837049  0.31453085  0.10446363    -0.14500
C610        C  0.21825048  0.31579243  0.12108298    -0.29600
H611        H  0.13202262  0.31313909  0.12270488     0.14600
H612        H  0.25485352  0.31568733  0.10290403     0.15100
C613        C  0.21988128  0.25451213  0.99247300    -0.14500
C614        C  0.27312295  0.25052487  0.98564903    -0.29600
H615        H  0.19197662  0.24211681  0.99894412     0.14600
H616        H  0.98927174  0.25995842  0.97543932     0.15100
C617        C  0.99785526  0.43479985  0.09746625    -0.14500
C618        C  0.03374195  0.43811787  0.12637322    -0.29600
H619        H  0.28324064  0.43542879  0.10351504     0.14600
H620        H  0.07713128  0.43967521  0.11972201     0.15100
C621        C  0.32836027  0.49569232  0.98386406    -0.14500
C622        C  0.27696515  0.50240581  0.97958715    -0.29600
H623        H  0.36144729  0.50630598  0.98968630     0.14600
H624        H  0.24407089  0.49166645  0.97399785     0.15100
C625        C  0.10378871  0.38190574  0.98272927    -0.14500
C626        C  0.07612310  0.36436216  0.98267207    -0.29600
H627        H  0.14830762  0.38160323  0.98433350     0.14600
H628        H  0.03155860  0.36452933  0.98227414     0.15100
C629        C  0.32668873  0.31226519  0.63072696    -0.14500
C630        C  0.36204168  0.31525646  0.60135983    -0.29600
H631        H  0.28309244  0.31084737  0.62472422     0.14600
H632        H  0.08468224  0.32137039  0.60509919     0.15100
C633        C  0.31887089  0.25228024  0.74502403    -0.14500
C634        C  0.26570619  0.24763088  0.74923724    -0.29600
H635        H  0.34871480  0.24033477  0.73981090     0.14600
H636        H  0.23564753  0.25956302  0.75388437     0.15100
C637        C  0.08502949  0.30380450  0.85523560    -0.14500
C638        C  0.13493373  0.30542661  0.87115768    -0.29600
H639        H  0.04926372  0.30283094  0.87418157     0.14600
H640        H  0.17052585  0.30802607  0.85266251     0.15100
C641        C  0.19586603  0.43468404  0.62587253    -0.14500
C642        C  0.16133588  0.43474541  0.59551848    -0.29600
H643        H  0.23979460  0.43393226  0.62060660     0.14600
H644        H  0.11737067  0.43435665  0.60075466     0.15100
C645        C  0.20514971  0.49655652  0.73280613    -0.14500
C646        C  0.25699241  0.50253666  0.73857408    -0.29600
H647        H  0.17403328  0.50769837  0.72529150     0.14600
H648        H  0.28838121  0.49165754  0.74679944     0.15100
C649        C  0.11537048  0.44519082  0.85306216    -0.14500
C650        C  0.06486835  0.44281129  0.86770576    -0.29600
H651        H  0.15018195  0.44612430  0.87285705     0.14600
H652        H  0.03046146  0.44046609  0.84798334     0.15100
C653        C  0.11624941  0.36649733  0.74385239    -0.14500
C654        C  0.08642817  0.38343550  0.74248090    -0.29600
H655        H  0.16075619  0.36745445  0.74362971     0.14600
H656        H  0.04199155  0.38243385  0.74075717     0.15100
C657        C  0.03143553  0.81496273  0.10310991    -0.14500
C658        C  0.08123273  0.81272747  0.11955778    -0.29600
H659        H  0.99536725  0.81612725  0.12170466     0.14600
H660        H  0.11729710  0.81056320  0.10132087     0.15100
C661        C  0.04441839  0.75164634  0.23140773    -0.14500
C662        C  0.29615481  0.75075747  0.24372202    -0.29600
H663        H  0.07643661  0.74034505  0.22757565     0.14600
H664        H  0.26631769  0.76274382  0.24858960     0.15100
C665        C  0.20688269  0.93666723  0.12617979    -0.14500
C666        C  0.25704057  0.93805302  0.10989131    -0.29600
H667        H  0.17066246  0.93645406  0.10764765     0.14600
H668        H  0.29314168  0.93961512  0.12829561     0.15100
C669        C  0.24483812  0.99584925  0.23950456    -0.14500
C670        C  0.21404368  0.01209660  0.23059672    -0.29600
H671        H  0.28812256  0.99762533  0.24627412     0.14600
H672        H  0.17080424  0.01037860  0.22363560     0.15100
C673        C  0.12006445  0.88332333  0.24325827    -0.14500
C674        C  0.15170771  0.86672378  0.24207668    -0.29600
H675        H  0.07568307  0.88183728  0.24283055     0.14600
H676        H  0.19607297  0.86833684  0.24172065     0.15100
C677        C  0.20689531  0.81737017  0.60364997    -0.14500
C678        C  0.17158267  0.81504613  0.63324291    -0.29600
H679        H  0.25040465  0.81881267  0.61007700     0.14600
H680        H  0.12772641  0.81472922  0.62765787     0.15100
C681        C  0.21760444  0.75652663  0.49704167    -0.14500
C682        C  0.26847495  0.74917114  0.49366525    -0.29600
H683        H  0.18369642  0.74620712  0.50251652     0.14600
H684        H  0.30279875  0.75916933  0.48751864     0.15100
C685        C  0.15173163  0.80801253  0.37295570    -0.14500
C686        C  0.10345127  0.80720890  0.35444942    -0.29600
H687        H  0.18934649  0.80835403  0.35584630     0.14600
H688        H  0.06554164  0.80810654  0.37111743     0.15100
C689        C  0.05528908  0.93353347  0.63035911    -0.14500
C690        C  0.02439624  0.93647574  0.59843481    -0.29600
H691        H  0.09938738  0.93161215  0.62767492     0.14600
H692        H  0.98003082  0.93707882  0.60147753     0.15100
C693        C  0.29370330  0.00600993  0.48881631    -0.14500
C694        C  0.34751568  0.00258175  0.49411163    -0.29600
H695        H  0.26623791  0.99340633  0.48289710     0.14600
H696        H  0.03862799  0.01184870  0.49758781     0.15100
C697        C  0.16274752  0.94483023  0.35897922    -0.14500
C698        C  0.11428036  0.95030003  0.37419077    -0.29600
H699        H  0.19602373  0.94024683  0.37819221     0.14600
H700        H  0.08009529  0.95349440  0.35473617     0.15100
C701        C  0.14452713  0.88824971  0.48525858    -0.14500
C702        C  0.11447017  0.87138963  0.48268864    -0.29600
H703        H  0.18869339  0.88723477  0.48904557     0.14600
H704        H  0.07006992  0.87258455  0.48082449     0.15100
O705        O  0.42291199  0.97986278  0.49538258    -0.69800
O706        O  0.48884386  0.92779592  0.48982303    -0.70000
O707        O  0.46280737  0.95628503  0.43732923    -0.69900
O708        O  0.44804476  0.95083884  0.54785096    -0.69900
O709        O  0.36717925  0.93767952  0.53952660    -0.69900
O710        O  0.38209504  0.94288193  0.42959485    -0.69900
O711        O  0.40838011  0.91421224  0.48229414    -0.69800
O712        O  0.34235382  0.96646422  0.48702822    -0.70000
V713        V  0.45401561  0.95350208  0.49244811     1.35200
V714        V  0.37661195  0.94056025  0.48475881     1.35200
C715        C  0.37165495  0.98208254  0.49210099     0.79400
C716        C  0.45992771  0.91212355  0.48531015     0.79500
C717        C  0.42511290  0.95015742  0.41470521     0.79400
C718        C  0.40496881  0.94323994  0.56240325     0.79300
O719        O  0.44470313  0.84018625  0.49422217    -0.69800
O720        O  0.48829120  0.78567916  0.49439320    -0.70000
O721        O  0.48371258  0.81457385  0.54895350    -0.69900
O722        O  0.45235305  0.81122325  0.43944953    -0.69900
O723        O  0.53669749  0.81967084  0.42690203    -0.69900
O724        O  0.56676117  0.82411602  0.53499570    -0.69900
O725        O  0.57281925  0.79415515  0.48243011    -0.69800
O726        O  0.52757204  0.84987981  0.48012554    -0.70000
V727        V  0.46892826  0.81316348  0.49401407     1.35200
V728        V  0.54933932  0.82187166  0.48133075     1.35200
C729        C  0.47768614  0.85430441  0.48678897     0.79400
C730        C  0.53733166  0.78051461  0.48904674     0.79500
C731        C  0.53152150  0.81937561  0.56033675     0.79400
C732        C  0.49002581  0.81452235  0.41462199     0.79300
O733        O  0.53355031  0.93904488  0.30100502    -0.69800
O734        O  0.56287671  0.93288973  0.19310881    -0.70000
O735        O  0.57691836  0.96267841  0.24535364    -0.69900
O736        O  0.51713494  0.90910610  0.24816600    -0.69900
O737        O  0.43629198  0.92152345  0.23629267    -0.69900
O738        O  0.49610803  0.97428755  0.23060920    -0.69900
O739        O  0.48127754  0.94398054  0.17902919    -0.69800
O740        O  0.45303849  0.95151555  0.28808253    -0.70000
V741        V  0.54596002  0.93609673  0.24670220     1.35200
V742        V  0.46826011  0.94759403  0.23373889     1.35200
C743        C  0.48909140  0.94655880  0.31301854     0.79400
C744        C  0.52759167  0.93744804  0.16771237     0.79500
C745        C  0.54620922  0.97758349  0.23716177     0.79400
C746        C  0.46617659  0.90631005  0.24268347     0.79300
O747        O  0.41967669  0.78000048  0.23523294    -0.69800
O748        O  0.47582709  0.83342566  0.23382530    -0.70000
O749        O  0.45998054  0.80569004  0.28967633    -0.69900
O750        O  0.43346803  0.80822649  0.17936459    -0.69900
O751        O  0.35197138  0.82007806  0.19136020    -0.69900
O752        O  0.37747938  0.81694787  0.30021706    -0.69900
O753        O  0.39454298  0.84553789  0.24547358    -0.69800
O754        O  0.33750057  0.79153506  0.24582344    -0.70000
V755        V  0.44563716  0.80704951  0.23472030     1.35200
V756        V  0.36702936  0.81833989  0.24547577     1.35200
C757        C  0.36931113  0.77657787  0.24038160     0.79400
C758        C  0.44540711  0.84853928  0.23994603     0.79500
C759        C  0.42285325  0.81105165  0.31360629     0.79400
C760        C  0.38741150  0.81438663  0.16683843     0.79300
O761        O  0.46145084  0.47100082  0.72731619    -0.69800
O762        O  0.40176620  0.41803470  0.72993653    -0.70000
O763        O  0.41857569  0.44686137  0.78355151    -0.69900
O764        O  0.44581414  0.44155707  0.67374128    -0.69900
O765        O  0.52699212  0.42975603  0.68683014    -0.69900
O766        O  0.49991249  0.43485920  0.79539955    -0.69900
O767        O  0.48264435  0.40565911  0.74190221    -0.69800
O768        O  0.54256417  0.45902724  0.73992945    -0.70000
V769        V  0.43351192  0.44418528  0.72885525     1.35200
V770        V  0.51138111  0.43254033  0.74077138     1.35200
C771        C  0.51194097  0.47409764  0.73291490     0.79400
C772        C  0.43172346  0.40286523  0.73659104     0.79500
C773        C  0.45463514  0.44135339  0.80808140     0.79400
C774        C  0.49158463  0.43480911  0.66181197     0.79300
O775        O  0.38796262  0.27681455  0.73593546    -0.69800
O776        O  0.44318057  0.33024766  0.73233948    -0.70000
O777        O  0.43638551  0.30188386  0.78775591    -0.69900
O778        O  0.39330224  0.30566393  0.68066900    -0.69900
O779        O  0.67275281  0.31859950  0.69577157    -0.69900
O780        O  0.35654592  0.31353328  0.80507430    -0.69900
O781        O  0.36332106  0.34212225  0.74900523    -0.69800
O782        O  0.66590111  0.28864383  0.74790784    -0.70000
V783        V  0.41358540  0.30384943  0.73449014     1.35200
V784        V  0.69729244  0.31506922  0.74767891     1.35200
C785        C  0.69514170  0.27361139  0.73804338     0.79400
C786        C  0.41310128  0.34525226  0.74002359     0.79500
C787        C  0.40361446  0.30732212  0.81459168     0.79400
C788        C  0.70331881  0.31356907  0.66766308     0.79300
O789        O  0.42496142  0.41215401  0.98754799    -0.69800
O790        O  0.38946351  0.46797233  0.98863837    -0.70000
O791        O  0.39044863  0.43859631  0.04268326    -0.69900
O792        O  0.42211291  0.44162245  0.93335399    -0.69900
O793        O  0.68457512  0.43232016  0.92282128    -0.69900
O794        O  0.64849239  0.42800188  0.03045884    -0.69900
O795        O  0.65147966  0.45822442  0.97883582    -0.69800
O796        O  0.34013020  0.40441807  0.97519653    -0.70000
V797        V  0.40512382  0.43987876  0.98780639     1.35200
V798        V  0.66861518  0.43009283  0.97702748     1.35200
C799        C  0.38905917  0.39875072  0.98122648     0.79400
C800        C  0.68870989  0.47087354  0.98739674     0.79500
C801        C  0.34193322  0.43514070  0.05430462     0.79400
C802        C  0.38455179  0.43855877  0.90838692     0.79300
O803        O  0.49731996  0.28127168  0.99184337    -0.69800
O804        O  0.44385278  0.33556367  0.98871590    -0.70000
O805        O  0.45177833  0.30517269  0.93660689    -0.69900
O806        O  0.48947990  0.31171715  0.04397754    -0.69900
O807        O  0.57108693  0.32157416  0.02685704    -0.69900
O808        O  0.53263239  0.31593445  0.91974032    -0.69900
O809        O  0.52547023  0.34598138  0.97296269    -0.69800
O810        O  0.57794074  0.29185448  0.97408309    -0.70000
V811        V  0.47212470  0.30861847  0.98994862     1.35200
V812        V  0.55006586  0.31867566  0.97369576     1.35200
C813        C  0.54689789  0.27737678  0.98380525     0.79400
C814        C  0.47588169  0.35002684  0.98047948     0.79500
C815        C  0.48576329  0.30957656  0.90991425     0.79400
C816        C  0.53721001  0.31736939  0.05360404     0.79300
O817        O  0.42475345  0.18080373  0.55707663    -0.69800
O818        O  0.38896262  0.17819990  0.44931598    -0.70000
O819        O  0.44149768  0.15337488  0.49949462    -0.69900
O820        O  0.37386380  0.20525340  0.50626824    -0.69900
O821        O  0.45135154  0.21932900  0.49047545    -0.69900
O822        O  0.51960416  0.16780978  0.48681812    -0.69900
O823        O  0.46767296  0.19160602  0.43444343    -0.69800
O824        O  0.50202087  0.19554661  0.54311123    -0.70000
V825        V  0.40892839  0.17959807  0.50280794     1.35200
V826        V  0.48371841  0.19326109  0.48900262     1.35200
C827        C  0.46868870  0.18897337  0.56856026     0.79400
C828        C  0.42142907  0.18486594  0.42363442     0.79500
C829        C  0.49229517  0.15182238  0.49215369     0.79400
C830        C  0.40105437  0.22107310  0.49869350     0.79300
O831        O  0.55424980  0.02661122  0.48283854    -0.69800
O832        O  0.49056064  0.07895440  0.48077936    -0.70000
O833        O  0.53595205  0.05436532  0.42679737    -0.69900
O834        O  0.50966788  0.05166214  0.53667769    -0.69900
O835        O  0.59023431  0.06460487  0.54746392    -0.69900
O836        O  0.61603543  0.06760571  0.43797925    -0.69900
O837        O  0.57030144  0.09250195  0.49185337    -0.69800
O838        O  0.63448688  0.03983906  0.49352169    -0.70000
V839        V  0.52424354  0.05312488  0.48194714     1.35200
V840        V  0.60118461  0.06591345  0.49247338     1.35200
C841        C  0.60504525  0.02426580  0.48831890     0.79400
C842        C  0.51915631  0.09459324  0.48651837     0.79500
C843        C  0.58077367  0.06129650  0.41375495     0.79400
C844        C  0.54542478  0.05792298  0.56071079     0.79300
O845        O  0.45737731  0.03147320  0.73806425    -0.69800
O846        O  0.52179539  0.08368133  0.74198872    -0.70000
O847        O  0.47105973  0.05947229  0.79423183    -0.69900
O848        O  0.50694966  0.05575432  0.68568685    -0.69900
O849        O  0.42834468  0.06938827  0.67132628    -0.69900
O850        O  0.39192701  0.07242368  0.77905318    -0.69900
O851        O  0.44298201  0.09731484  0.72827005    -0.69800
O852        O  0.37882033  0.04482822  0.72264062    -0.70000
V853        V  0.48780599  0.05787499  0.73972231     1.35200
V854        V  0.41218393  0.07079593  0.72556424     1.35200
C855        C  0.40720511  0.02925334  0.72989102     0.79400
C856        C  0.49350188  0.09938242  0.73602563     0.79500
C857        C  0.42466645  0.06617406  0.80493677     0.79400
C858        C  0.47320830  0.06181496  0.66005679     0.79300
O859        O  0.56697380  0.15950867  0.73564955    -0.69800
O860        O  0.62757426  0.21276885  0.73561119    -0.70000
O861        O  0.61076802  0.18438265  0.79007414    -0.69900
O862        O  0.58510180  0.18801398  0.68092591    -0.69900
O863        O  0.50345049  0.19995329  0.69206999    -0.69900
O864        O  0.53010737  0.19700356  0.80193238    -0.69900
O865        O  0.54641817  0.22519718  0.74644383    -0.69800
O866        O  0.48639635  0.17221588  0.74749524    -0.70000
V867        V  0.59598436  0.18637817  0.73579867     1.35200
V868        V  0.51820596  0.19838119  0.74677420     1.35200
C869        C  0.51606194  0.15688863  0.74123238     0.79400
C870        C  0.59712886  0.22804539  0.74130461     0.79500
C871        C  0.57549640  0.19040874  0.81458521     0.79400
C872        C  0.53972874  0.19422461  0.66788889     0.79300
O873        O  0.56484306  0.52748654  0.98547025    -0.69800
O874        O  0.52702820  0.58289300  0.98575864    -0.70000
O875        O  0.56294688  0.55673758  0.93120006    -0.69900
O876        O  0.53084472  0.55399891  0.04026449    -0.69900
O877        O  0.61555440  0.56172098  0.05335168    -0.69900
O878        O  0.64741416  0.56435897  0.94535277    -0.69900
O879        O  0.61136175  0.59116671  0.99882213    -0.69800
O880        O  0.64959122  0.53498923  0.99888600    -0.70000
V881        V  0.54809066  0.55541666  0.98596949     1.35200
V882        V  0.62932332  0.56293237  0.99891704     1.35200
C883        C  0.61338895  0.52174381  0.99143791     0.79400
C884        C  0.56222343  0.59645431  0.99211306     0.79500
C885        C  0.61122168  0.56082540  0.91997010     0.79400
C886        C  0.56793446  0.55764430  0.06528957     0.79300
O887        O  0.49048497  0.68840159  0.04273545    -0.69800
O888        O  0.47395171  0.68310766  0.93317714    -0.70000
O889        O  0.50818325  0.65853568  0.99082888    -0.69900
O890        O  0.45780860  0.71296062  0.98487595    -0.69900
O891        O  0.54178362  0.72321242  0.97708086    -0.69900
O892        O  0.59191979  0.66881259  0.98193086    -0.69900
O893        O  0.55750855  0.69352604  0.92410428    -0.69800
O894        O  0.57492836  0.69814531  0.03491307    -0.70000
V895        V  0.48433106  0.68592914  0.98773101     1.35200
V896        V  0.56494282  0.69575613  0.97965979     1.35200
C897        C  0.53539838  0.69388518  0.05759135     0.79400
C898        C  0.51222225  0.68766310  0.90989801     0.79500
C899        C  0.55874870  0.65443587  0.98748166     0.79400
C900        C  0.49136724  0.72735946  0.97988622     0.79300
O901        O  0.53066400  0.58984597  0.24130289    -0.69800
O902        O  0.48974747  0.53441170  0.24535242    -0.70000
O903        O  0.52876605  0.55917079  0.18943201    -0.69900
O904        O  0.48975148  0.56507779  0.29711971    -0.69900
O905        O  0.40702442  0.57323941  0.27940688    -0.69900
O906        O  0.44523319  0.56697585  0.17310108    -0.69900
O907        O  0.40643928  0.54234459  0.22879080    -0.69800
O908        O  0.44771576  0.59802214  0.22427566    -0.70000
V909        V  0.50819282  0.56231720  0.24298927     1.35200
V910        V  0.42832630  0.57003326  0.22670752     1.35200
C911        C  0.49640914  0.60337594  0.23201601     0.79400
C912        C  0.44126838  0.52891284  0.23801336     0.79500
C913        C  0.49300734  0.56191478  0.16303598     0.79400
C914        C  0.44100153  0.56979039  0.30633218     0.79300
O915        O  0.58178704  0.72207379  0.24144564    -0.69800
O916        O  0.54399696  0.66637404  0.23750813    -0.70000
O917        O  0.57313171  0.69236005  0.29480647    -0.69900
O918        O  0.55440545  0.69597790  0.18408062    -0.69900
O919        O  0.64012174  0.68790525  0.17611908    -0.69900
O920        O  0.65910452  0.68496334  0.28585263    -0.69900
O921        O  0.62975404  0.65829810  0.23000281    -0.69800
O922        O  0.66750491  0.71437316  0.23233616    -0.70000
V923        V  0.56496938  0.69402512  0.23929592     1.35200
V924        V  0.64739890  0.68650199  0.23121679     1.35200
C925        C  0.63087598  0.72774943  0.23754272     0.79400
C926        C  0.58015408  0.65283225  0.23329304     0.79500
C927        C  0.61987862  0.68830557  0.30903143     0.79400
C928        C  0.59450712  0.69260373  0.16133461     0.79300
O929        O  0.57404392  0.91877406  0.73185982    -0.69800
O930        O  0.62574522  0.97267134  0.73033731    -0.70000
O931        O  0.61265575  0.94376771  0.67602375    -0.69900
O932        O  0.58867346  0.94740216  0.78605162    -0.69900
O933        O  0.37449545  0.93115950  0.79675175    -0.69900
O934        O  0.38353875  0.92987680  0.68591528    -0.69900
O935        O  0.41255331  0.95620485  0.74148463    -0.69800
O936        O  0.34371642  0.90438740  0.74120966    -0.70000
V937        V  0.60194778  0.94546199  0.73123570     1.35200
V938        V  0.37693848  0.93058111  0.74123861     1.35200
C939        C  0.60626869  0.90417843  0.73770402     0.79400
C940        C  0.38406072  0.97208607  0.73770909     0.79500
C941        C  0.34483067  0.93657255  0.66503068     0.79400
C942        C  0.62635000  0.94254255  0.80977872     0.79300
O943        O  0.57705743  0.77797267  0.73372861    -0.69800
O944        O  0.62662516  0.83207754  0.73409302    -0.70000
O945        O  0.62238568  0.80276879  0.78764243    -0.69900
O946        O  0.57959742  0.80792889  0.68055378    -0.69900
O947        O  0.49825765  0.81738467  0.69923428    -0.69900
O948        O  0.54105335  0.81274981  0.80528699    -0.69900
O949        O  0.54553038  0.84249320  0.75138434    -0.69800
O950        O  0.49574504  0.78762594  0.75210519    -0.70000
V951        V  0.59975412  0.80532071  0.73435025     1.35200
V952        V  0.52177185  0.81489223  0.75175742     1.35200
C953        C  0.52823276  0.77352040  0.74223238     0.79400
C954        C  0.59490953  0.84648003  0.74250237     0.79500
C955        C  0.58884581  0.80730160  0.81465544     0.79400
C956        C  0.53133144  0.81353661  0.67187336     0.79300
O957        O  0.55865655  0.96922006  0.99161662    -0.69800
O958        O  0.60528794  0.91443861  0.98814842    -0.70000
O959        O  0.59566140  0.94420023  0.93517139    -0.69900
O960        O  0.56628712  0.93939531  0.04438594    -0.69900
O961        O  0.48264299  0.93031969  0.03108677    -0.69900
O962        O  0.51199717  0.93481442  0.92276625    -0.69900
O963        O  0.52191087  0.90475309  0.97587853    -0.69800
O964        O  0.47495389  0.96014300  0.97862578    -0.70000
V965        V  0.57984233  0.94160777  0.98958634     1.35200
V966        V  0.49957544  0.93261520  0.97726721     1.35200
C967        C  0.50919019  0.97407797  0.98619398     0.79400
C968        C  0.57192082  0.90023034  0.98141792     0.79500
C969        C  0.55834337  0.94037146  0.91044312     0.79400
C970        C  0.51874620  0.93455194  0.05616060     0.79300
O971        O  0.38437214  0.81479392  0.92069414    -0.69800
O972        O  0.42564565  0.81799477  0.02782592    -0.70000
O973        O  0.43134277  0.78938956  0.97236389    -0.69900
O974        O  0.37733269  0.84367995  0.97686425    -0.69900
O975        O  0.63131290  0.83819801  0.98914960    -0.69900
O976        O  0.35091642  0.77842078  0.98977395    -0.69900
O977        O  0.34474167  0.80737396  0.04487082    -0.69800
O978        O  0.63617635  0.80773272  0.93707696    -0.70000
V979        V  0.40307269  0.81630296  0.97468490     1.35200
V980        V  0.65752624  0.81110562  0.99033658     1.35200
C981        C  0.33746802  0.80847791  0.91078901     0.79400
C982        C  0.39246079  0.81309237  0.05455763     0.79500
C983        C  0.40014360  0.77470349  0.98091655     0.79400
C984        C  0.32758347  0.84708659  0.98559148     0.79300
O985        O  0.62644104  0.56030994  0.67525608    -0.69800
O986        O  0.57784725  0.56418483  0.78059594    -0.70000
O987        O  0.62848593  0.58952357  0.73042702    -0.69900
O988        O  0.57638118  0.53513981  0.72592793    -0.69900
O989        O  0.65554511  0.52442300  0.74649725    -0.69900
O990        O  0.35145256  0.58650597  0.74519101    -0.69900
O991        O  0.65798705  0.55402068  0.80033091    -0.69800
O992        O  0.70561321  0.54920298  0.69512505    -0.70000
V993        V  0.60385644  0.56209822  0.72834776     1.35200
V994        V  0.68026245  0.55174600  0.74737677     1.35200
C995        C  0.67435402  0.55420719  0.66732347     0.79400
C996        C  0.60973330  0.55973593  0.80836582     0.79500
C997        C  0.67752443  0.59327727  0.74035096     0.79400
C998        C  0.60690087  0.52055840  0.73617663     0.79300
O999        O  0.44621686  0.68475346  0.67598504    -0.69800
O1000       O  0.47835252  0.68227978  0.78486158    -0.70000
O1001       O  0.44420173  0.65538757  0.73067942    -0.69900
O1002       O  0.47977124  0.71139111  0.73080580    -0.69900
O1003       O  0.39549363  0.71878851  0.74584430    -0.69900
O1004       O  0.35882521  0.66289102  0.74193701    -0.69900
O1005       O  0.39280725  0.68855758  0.79813318    -0.69800
O1006       O  0.36194412  0.69291880  0.68946460    -0.70000
V1007       V  0.46045756  0.68357440  0.73074859     1.35200
V1008       V  0.37891747  0.69065820  0.74355989     1.35200
C1009       C  0.39860376  0.68921622  0.66418789     0.79400
C1010       C  0.44102750  0.68511217  0.80998363     0.79500
C1011       C  0.39531273  0.64962671  0.73599291     0.79400
C1012       C  0.44404781  0.72457352  0.73946492     0.79300
O1013       O  0.36384334  0.53026526  0.46917123    -0.69800
O1014       O  0.33563330  0.58676717  0.47722394    -0.70000
O1015       O  0.37962397  0.56241214  0.42242654    -0.69900
O1016       O  0.32000027  0.55493477  0.52408210    -0.69900
O1017       O  0.40052660  0.56044746  0.54919065    -0.69900
O1018       O  0.46112412  0.56580778  0.44732061    -0.69900
O1019       O  0.41787157  0.59146036  0.50007461    -0.69800
O1020       O  0.44371438  0.53488474  0.49593269    -0.70000
V1021       V  0.35134072  0.55864707  0.47367664     1.35200
V1022       V  0.42916104  0.56304603  0.49774192     1.35200
C1023       C  0.40892932  0.52301100  0.48083139     0.79400
C1024       C  0.37215310  0.59870586  0.48980592     0.79500
C1025       C  0.43056456  0.56515464  0.41754121     0.79400
C1026       C  0.34994210  0.55698150  0.55399835     0.79300
O1027       O  0.58889224  0.68956927  0.55407950    -0.69800
O1028       O  0.56263214  0.68817613  0.44465553    -0.70000
O1029       O  0.58487650  0.66013222  0.49922097    -0.69900
O1030       O  0.56778962  0.71731845  0.49879997    -0.69900
O1031       O  0.32325491  0.71961278  0.48673405    -0.69900
O1032       O  0.34309519  0.66269340  0.48585351    -0.69900
O1033       O  0.31025352  0.69034554  0.43295837    -0.69800
O1034       O  0.35476869  0.69185636  0.54003937    -0.70000
V1035       V  0.57779161  0.68886693  0.49907806     1.35200
V1036       V  0.33125520  0.69101328  0.48674252     1.35200
C1037       C  0.31953498  0.68964562  0.56698023     0.79400
C1038       C  0.60163229  0.68953997  0.42052320     0.79500
C1039       C  0.30396730  0.65079748  0.49348976     0.79400
C1040       C  0.60813907  0.72890320  0.49220172     0.79300
O1041       O  0.49240964  0.43312344  0.41555883    -0.69800
O1042       O  0.45076831  0.42990416  0.52285947    -0.70000
O1043       O  0.45199421  0.45922681  0.46901267    -0.69900
O1044       O  0.49177517  0.40334551  0.47025176    -0.69900
O1045       O  0.57527381  0.41166662  0.48553847    -0.69900
O1046       O  0.53457094  0.46705094  0.48762757    -0.69900
O1047       O  0.53443744  0.43700186  0.53990457    -0.69800
O1048       O  0.57478867  0.44191542  0.43282341    -0.70000
V1049       V  0.47338727  0.43147731  0.46961179     1.35200
V1050       V  0.55313392  0.43921784  0.48607250     1.35200
C1051       C  0.54035713  0.43847701  0.40590717     0.79400
C1052       C  0.48540054  0.43319485  0.54962362     0.79500
C1053       C  0.48645549  0.47256584  0.47919782     0.79400
C1054       C  0.54036609  0.39801651  0.47835200     0.79300
O1055       O  0.32725572  0.34482460  0.48024758    -0.69800
O1056       O  0.40007359  0.29379862  0.48122534    -0.70000
O1057       O  0.35143152  0.31643651  0.42656560    -0.69900
O1058       O  0.37836921  0.32206685  0.53477031    -0.69900
O1059       O  0.63936632  0.31092665  0.55044748    -0.69900
O1060       O  0.58272915  0.30440642  0.44741154    -0.69900
O1061       O  0.63087458  0.27974841  0.50040328    -0.69800
O1062       O  0.59058507  0.33545037  0.49728425    -0.70000
V1063       V  0.36260028  0.31907118  0.48096704     1.35200
V1064       V  0.61245096  0.30778253  0.49848831     1.35200
C1065       C  0.62383683  0.34868234  0.48492239     0.79400
C1066       C  0.37318931  0.27777381  0.48771114     0.79500
C1067       C  0.61310905  0.30742383  0.41800249     0.79400
C1068       C  0.34573968  0.31499561  0.55986433     0.79300
O1069       O  0.63705903  0.47348334  0.23000352    -0.69800
O1070       O  0.58863943  0.41896390  0.23054431    -0.70000
O1071       O  0.59111676  0.44848934  0.28382088    -0.69900
O1072       O  0.63512411  0.44316924  0.17694991    -0.69900
O1073       O  0.38430467  0.43525516  0.19208911    -0.69900
O1074       O  0.35244441  0.44029265  0.30009904    -0.69900
O1075       O  0.34235553  0.41022609  0.24685328    -0.69800
O1076       O  0.39195471  0.46529666  0.24475790    -0.70000
V1077       V  0.61464571  0.44592916  0.23067659     1.35200
V1078       V  0.36614793  0.43793132  0.24570371     1.35200
C1079       C  0.35844529  0.47941589  0.23683435     0.79400
C1080       C  0.62084682  0.40469382  0.23903224     0.79500
C1081       C  0.62401795  0.44379144  0.31104395     0.79400
C1082       C  0.34881039  0.43912862  0.16636530     0.79300
O1083       O  0.58007471  0.27859071  0.22452027    -0.69800
O1084       O  0.30705949  0.33304400  0.23706759    -0.70000
O1085       O  0.63299361  0.30149296  0.27794687    -0.69900
O1086       O  0.58635456  0.30928327  0.17309422    -0.69900
O1087       O  0.50702974  0.31985473  0.19381153    -0.69900
O1088       O  0.55541001  0.31358333  0.29897284    -0.69900
O1089       O  0.56002828  0.34353965  0.24578998    -0.69800
O1090       O  0.50259352  0.29012862  0.24678528    -0.70000
V1091       V  0.60804965  0.30551793  0.22594453     1.35200
V1092       V  0.53282056  0.31657759  0.24597892     1.35200
C1093       C  0.53121798  0.27530575  0.23520367     0.79400
C1094       C  0.60948441  0.34681921  0.23647999     0.79500
C1095       C  0.60258330  0.30654240  0.30627180     0.79400
C1096       C  0.53855147  0.31562643  0.16557438     0.79300
O1097       O  0.37813188  0.02940888  0.98160135    -0.69800
O1098       O  0.33856452  0.08494439  0.98145380    -0.70000
O1099       O  0.37772526  0.05896205  0.92737855    -0.69900
O1100       O  0.34029036  0.05592093  0.03589159    -0.69900
O1101       O  0.42423430  0.06383716  0.05084618    -0.69900
O1102       O  0.46133850  0.06682243  0.94335828    -0.69900
O1103       O  0.42203152  0.09346864  0.99647452    -0.69800
O1104       O  0.46186251  0.03737841  0.99693928    -0.70000
V1105       V  0.36033927  0.05743344  0.98187360     1.35200
V1106       V  0.44068879  0.06524058  0.99667348     1.35200
C1107       C  0.42670256  0.02388283  0.98863426     0.79400
C1108       C  0.37302606  0.09864878  0.98898555     0.79500
C1109       C  0.42631865  0.06328798  0.91709465     0.79400
C1110       C  0.37612263  0.05967299  0.06179071     0.79300
O1111       O  0.31731239  0.16080728  0.99623378    -0.69800
O1112       O  0.61346049  0.21647787  0.99205818    -0.70000
O1113       O  0.62123996  0.18705676  0.93833273    -0.69900
O1114       O  0.31039840  0.19086469  0.04976210    -0.69900
O1115       O  0.39080408  0.20177628  0.03210928    -0.69900
O1116       O  0.35143068  0.19539673  0.92542706    -0.69900
O1117       O  0.34381543  0.22576854  0.97789107    -0.69800
O1118       O  0.39826669  0.17161889  0.97984529    -0.70000
V1119       V  0.29198917  0.18810809  0.99585017     1.35200
V1120       V  0.36945151  0.19845540  0.97912879     1.35200
C1121       C  0.36699573  0.15698151  0.98824611     0.79400
C1122       C  0.29440848  0.22952691  0.98663431     0.79500
C1123       C  0.30407356  0.18943944  0.91582146     0.79400
C1124       C  0.35749160  0.19732305  0.05905847     0.79300
O1125       O  0.63939181  0.06574620  0.18017527    -0.69800
O1126       O  0.61500626  0.06749792  0.28983505    -0.70000
O1127       O  0.65168597  0.09421107  0.23607401    -0.69900
O1128       O  0.60398960  0.03926544  0.23414630    -0.69900
O1129       O  0.28741186  0.03527892  0.23921830    -0.69900
O1130       O  0.34958254  0.08764169  0.24095359    -0.69900
O1131       O  0.30070645  0.06364327  0.29443146    -0.69800
O1132       O  0.33486550  0.05926409  0.18570288    -0.70000
V1133       V  0.62919949  0.06651515  0.23524189     1.35200
V1134       V  0.31660605  0.06174241  0.23980454     1.35200
C1135       C  0.30108935  0.06531715  0.16007506     0.79400
C1136       C  0.65262324  0.06295153  0.31368098     0.79500
C1137       C  0.32050807  0.10316371  0.23546191     0.79400
C1138       C  0.63763326  0.02493500  0.23971203     0.79300
O1139       O  0.38208690  0.22799555  0.25198133    -0.69800
O1140       O  0.31703816  0.17583849  0.25123199    -0.70000
O1141       O  0.37227675  0.19786981  0.30451412    -0.69900
O1142       O  0.32733650  0.20544734  0.19869053    -0.69900
O1143       O  0.40404596  0.19203775  0.17909974    -0.69900
O1144       O  0.45040585  0.18592252  0.28421900    -0.69900
O1145       O  0.39463102  0.16267685  0.23282588    -0.69800
O1146       O  0.45873825  0.21524128  0.23070493    -0.70000
V1147       V  0.35126132  0.20159448  0.25127295     1.35200
V1148       V  0.42540496  0.18920024  0.23208308     1.35200
C1149       C  0.43132807  0.23053341  0.24157740     0.79400
C1150       C  0.34453788  0.16041011  0.24171949     0.79500
C1151       C  0.41932897  0.19077171  0.31223876     0.79400
C1152       C  0.35779812  0.19956024  0.17091485     0.79300
C1153       C  0.31773435  0.14041247  0.24056636    -0.14500
C1154       C  0.34658486  0.12326039  0.23668937    -0.29600
H1155       H  0.64550487  0.13356618  0.24382056     0.14600
H1156       H  0.39110520  0.12386842  0.23551181     0.15100
C1157       C  0.37481046  0.19894433  0.10017785    -0.14500
C1158       C  0.33907946  0.20062507  0.12993917    -0.29600
H1159       H  0.41859392  0.19857337  0.10611852     0.14600
H1160       H  0.29547700  0.20223049  0.12414241     0.15100
C1161       C  0.31273548  0.06357863  0.11771173    -0.14500
C1162       C  0.36320816  0.05959783  0.10401676    -0.29600
H1163       H  0.27954300  0.06658516  0.09728981     0.14600
H1164       H  0.39707859  0.05786441  0.12441438     0.15100
C1165       C  0.38838350  0.13596138  0.98866421    -0.14500
C1166       C  0.35438842  0.11995948  0.98936140    -0.29600
H1167       H  0.43244518  0.13361231  0.98721400     0.14600
H1168       H  0.31034104  0.12250851  0.98895550     0.15100
C1169       C  0.50823186  0.25463991  0.23377007    -0.14500
C1170       C  0.45544654  0.25099096  0.24266451    -0.29600
H1171       H  0.53497897  0.24228101  0.22489667     0.14600
H1172       H  0.42884078  0.26341389  0.25144825     0.15100
C1173       C  0.59984967  0.38379630  0.23897830    -0.14500
C1174       C  0.63252807  0.36747999  0.23715066    -0.29600
H1175       H  0.55557898  0.38184353  0.23897025     0.14600
H1176       H  0.67671629  0.36932300  0.23503029     0.15100
C1177       C  0.59049288  0.30624703  0.37805785    -0.14500
C1178       C  0.62337779  0.30500198  0.34660802    -0.29600
H1179       H  0.33670732  0.30678030  0.35328329     0.14600
H1180       H  0.66738035  0.30329187  0.35049776     0.15100
C1181       C  0.55532219  0.44062860  0.36409176    -0.14500
C1182       C  0.60742118  0.44372592  0.35263525    -0.29600
H1183       H  0.52327768  0.43880705  0.34225931     0.14600
H1184       H  0.63981193  0.44442467  0.37444345     0.15100
C1185       C  0.60820836  0.37026455  0.48242694    -0.14500
C1186       C  0.55555550  0.37633763  0.48019999    -0.29600
H1187       H  0.64099069  0.38138918  0.48097207     0.14600
H1188       H  0.52286595  0.36515340  0.47950704     0.15100
C1189       C  0.42105562  0.50124509  0.47631828    -0.14500
C1190       C  0.47194883  0.49412787  0.48232710    -0.29600
H1191       H  0.38831954  0.49108578  0.46732948     0.14600
H1192       H  0.50453379  0.50449000  0.49076312     0.15100
C1193       C  0.36260799  0.62064670  0.49218081    -0.14500
C1194       C  0.31203154  0.62871206  0.49203104    -0.29600
H1195       H  0.39828552  0.63040954  0.49503913     0.14600
H1196       H  0.27612205  0.61896592  0.49141556     0.15100
C1197       C  0.38621488  0.68973876  0.62184556    -0.14500
C1198       C  0.33425735  0.69013598  0.60884516    -0.29600
H1199       H  0.42002611  0.68889439  0.60116110     0.14600
H1200       H  0.60944314  0.69316103  0.62907687     0.15100
C1201       C  0.69467093  0.55362451  0.62684263    -0.14500
C1202       C  0.32560486  0.55615356  0.59345976    -0.29600
H1203       H  0.73858576  0.55193218  0.62240318     0.14600
H1204       H  0.61705833  0.55658037  0.60015505     0.15100
C1205       C  0.32983872  0.62116499  0.73301547    -0.14500
C1206       C  0.38177332  0.62787298  0.73568297    -0.29600
H1207       H  0.29629888  0.63186864  0.72963711     0.14600
H1208       H  0.41546837  0.61711264  0.73708381     0.15100
C1209       C  0.49330998  0.99565706  0.98914408    -0.14500
C1210       C  0.44125775  0.00212716  0.98633443    -0.29600
H1211       H  0.52590099  0.00659709  0.99408263     0.14600
H1212       H  0.40852703  0.99126779  0.98120682     0.15100
C1213       C  0.59078534  0.87883540  0.98055327    -0.14500
C1214       C  0.64452480  0.87375460  0.97955812    -0.29600
H1215       H  0.55978143  0.86701455  0.98058608     0.14600
H1216       H  0.26017528  0.86920707  0.98990219     0.15100
C1217       C  0.51106681  0.75220844  0.73981176    -0.14500
C1218       C  0.45871090  0.74618454  0.74280501    -0.29600
H1219       H  0.54303370  0.74108514  0.73419753     0.14600
H1220       H  0.42640359  0.75717931  0.74827234     0.15100
C1221       C  0.60419650  0.80689015  0.85638443    -0.14500
C1222       C  0.65620558  0.80919228  0.86834443    -0.29600
H1223       H  0.57125887  0.80661552  0.87784050     0.14600
H1224       H  0.68882822  0.81069568  0.84683515     0.15100
C1225       C  0.56749484  0.94213937  0.86801126    -0.14500
C1226       C  0.61784383  0.94295817  0.85242480    -0.29600
H1227       H  0.53183493  0.94149805  0.84894989     0.14600
H1228       H  0.37008739  0.93768772  0.87294388     0.15100
C1229       C  0.58397872  0.88349418  0.73986893    -0.14500
C1230       C  0.61658044  0.86724562  0.74164449    -0.29600
H1231       H  0.53970536  0.88159418  0.73925254     0.14600
H1232       H  0.66084774  0.86912810  0.74063281     0.15100
C1233       C  0.59001222  0.68928131  0.37815424    -0.14500
C1234       C  0.63017860  0.68781261  0.35151778    -0.29600
H1235       H  0.54752924  0.69025476  0.36873459     0.14600
H1236       H  0.67246743  0.68625338  0.36111340     0.15100
C1237       C  0.45411207  0.56707603  0.37798628    -0.14500
C1238       C  0.42166083  0.57042334  0.34705422    -0.29600
H1239       H  0.49807678  0.56523711  0.37415326     0.14600
H1240       H  0.37797178  0.57281665  0.35151909     0.15100
C1241       C  0.37486972  0.50088791  0.23471557    -0.14500
C1242       C  0.42643866  0.50725117  0.24046545    -0.29600
H1243       H  0.34300897  0.51186115  0.22794555     0.14600
H1244       H  0.45847290  0.49638102  0.24738883     0.15100
C1245       C  0.56498507  0.63112517  0.23280404    -0.14500
C1246       C  0.51230779  0.62498600  0.23070387    -0.29600
H1247       H  0.59775792  0.61999042  0.23426040     0.14600
H1248       H  0.47973371  0.63612804  0.22786543     0.15100
C1249       C  0.50347478  0.68654289  0.86716074    -0.14500
C1250       C  0.45258093  0.68469446  0.85228260    -0.29600
H1251       H  0.53853701  0.68828113  0.84779976     0.14600
H1252       H  0.41748475  0.68401834  0.87187663     0.15100
C1253       C  0.47272167  0.74859001  0.97742038    -0.14500
C1254       C  0.41964579  0.75357842  0.98134299    -0.29600
H1255       H  0.50330867  0.76033645  0.97295304     0.14600
H1256       H  0.38933522  0.74179911  0.98643241     0.15100
C1257       C  0.54058349  0.69477007  0.10052580    -0.14500
C1258       C  0.58937675  0.69392198  0.11841639    -0.29600
H1259       H  0.50316749  0.69453022  0.11783682     0.14600
H1260       H  0.62666646  0.69303962  0.10103049     0.15100
C1261       C  0.59082307  0.56092309  0.84919000    -0.14500
C1262       C  0.62708395  0.56091049  0.87858175    -0.29600
H1263       H  0.54710968  0.56186511  0.85513864     0.14600
H1264       H  0.67077025  0.56096174  0.87215319     0.15100
C1265       C  0.55652656  0.55777393  0.10756206    -0.14500
C1266       C  0.50529843  0.55947975  0.12117948    -0.29600
H1267       H  0.59101914  0.55802447  0.12770512     0.14600
H1268       H  0.47114111  0.56022707  0.10078068     0.15100
C1269       C  0.54436988  0.61774135  0.99147458    -0.14500
C1270       C  0.57912981  0.63342098  0.98992158    -0.29600
H1271       H  0.50043191  0.62051248  0.99063164     0.14600
H1272       H  0.62312464  0.63078923  0.98942352     0.15100
C1273       C  0.58774827  0.19026064  0.85691189    -0.14500
C1274       C  0.63989232  0.18984297  0.86969874    -0.29600
H1275       H  0.55415522  0.19190948  0.87759977     0.14600
H1276       H  0.32376478  0.18777411  0.85335319     0.15100
C1277       C  0.40750447  0.06626338  0.84637379    -0.14500
C1278       C  0.44335152  0.06384008  0.87568539    -0.29600
H1279       H  0.36430002  0.06853843  0.85290301     0.14600
H1280       H  0.48691150  0.06270307  0.86925964     0.15100
C1281       C  0.38168215  0.00907066  0.72941320    -0.14500
C1282       C  0.41048301  0.99211459  0.73662694    -0.29600
H1283       H  0.33793179  0.00819948  0.72358124     0.14600
H1284       H  0.45436217  0.99291994  0.74197456     0.15100
C1285       C  0.49045481  0.13665367  0.73982063    -0.14500
C1286       C  0.51979900  0.11949538  0.73796344    -0.29600
H1287       H  0.44593417  0.13589642  0.74056951     0.14600
H1288       H  0.56432391  0.12015049  0.73867984     0.15100
C1289       C  0.59134341  0.06190141  0.37119089    -0.14500
C1290       C  0.64243282  0.06310314  0.35633212    -0.29600
H1291       H  0.55646054  0.06039412  0.35160658     0.14600
H1292       H  0.67760991  0.06326305  0.37585539     0.15100
C1293       C  0.53529659  0.05793283  0.60328777    -0.14500
C1294       C  0.48447162  0.06004404  0.61776533    -0.29600
H1295       H  0.57034443  0.05788961  0.62293317     0.14600
H1296       H  0.45003556  0.06164672  0.59779521     0.15100
C1297       C  0.40360021  0.18557836  0.38247373    -0.14500
C1298       C  0.43863898  0.18853744  0.35283730    -0.29600
H1299       H  0.36007295  0.18385459  0.37643722     0.14600
H1300       H  0.48251856  0.18897910  0.35833562     0.15100
C1301       C  0.40098286  0.25800994  0.48885507    -0.14500
C1302       C  0.37408805  0.24099146  0.49875662    -0.29600
H1303       H  0.44432261  0.25746405  0.48147876     0.14600
H1304       H  0.33080879  0.24158279  0.50630980     0.15100
C1305       C  0.47939537  0.19084035  0.61087514    -0.14500
C1306       C  0.52964427  0.19421785  0.62536906    -0.29600
H1307       H  0.44528677  0.18832290  0.63080386     0.14600
H1308       H  0.56464520  0.19519005  0.60574418     0.15100
C1309       C  0.52006883  0.13198766  0.49001845    -0.14500
C1310       C  0.49203851  0.11456207  0.48772482    -0.29600
H1311       H  0.56463410  0.13176988  0.48967273     0.14600
H1312       H  0.44748837  0.11488158  0.48673327     0.15100
C1313       C  0.55474947  0.31817584  0.09481738    -0.14500
C1314       C  0.51926801  0.31744416  0.12483475    -0.29600
H1315       H  0.59855136  0.31885509  0.10059350     0.14600
H1316       H  0.47536927  0.31780668  0.11940454     0.15100
C1317       C  0.56797728  0.25642215  0.98618390    -0.14500
C1318       C  0.62127773  0.25208923  0.98014073    -0.29600
H1319       H  0.53927779  0.24439700  0.99338172     0.14600
H1320       H  0.30122683  0.26276024  0.97859292     0.15100
C1321       C  0.32658502  0.43588589  0.09611266    -0.14500
C1322       C  0.36398047  0.43736934  0.12467563    -0.29600
H1323       H  0.62290417  0.43103111  0.10429318     0.14600
H1324       H  0.40737317  0.43694028  0.11741539     0.15100
C1325       C  0.67728673  0.49273051  0.99073088    -0.14500
C1326       C  0.62607770  0.49999121  0.98885150    -0.29600
H1327       H  0.71155665  0.50298228  0.99538258     0.14600
H1328       H  0.59196281  0.48965421  0.98428429     0.15100
C1329       C  0.40433695  0.37702433  0.98100305    -0.14500
C1330       C  0.45738850  0.37132813  0.98007919    -0.29600
H1331       H  0.37203957  0.36568864  0.98107096     0.14600
H1332       H  0.48919975  0.38282866  0.97837320     0.15100
C1333       C  0.68170930  0.31521051  0.62755457    -0.14500
C1334       C  0.71356428  0.31523980  0.59561349    -0.29600
H1335       H  0.63747468  0.31642963  0.62433694     0.14600
H1336       H  0.40503956  0.31799569  0.60792898     0.15100
C1337       C  0.67291246  0.25280820  0.73699699    -0.14500
C1338       C  0.61943278  0.24883836  0.74244438    -0.29600
H1339       H  0.70126262  0.24048266  0.73093316     0.14600
H1340       H  0.59098250  0.26119570  0.74800771     0.15100
C1341       C  0.41901823  0.30684165  0.85626542    -0.14500
C1342       C  0.47139853  0.30770673  0.86812328    -0.29600
H1343       H  0.38616776  0.30745734  0.87777151     0.14600
H1344       H  0.50421135  0.30848369  0.84661993     0.15100
C1345       C  0.50572426  0.43331527  0.61997536    -0.14500
C1346       C  0.46840466  0.43324874  0.59115300    -0.29600
H1347       H  0.54901517  0.43204804  0.61273246     0.14600
H1348       H  0.42491169  0.43350611  0.59809923     0.15100
C1349       C  0.53349748  0.49497590  0.73100655    -0.14500
C1350       C  0.58659215  0.49946832  0.73688607    -0.29600
H1351       H  0.50444389  0.50705302  0.72486815     0.14600
H1352       H  0.61563844  0.48747208  0.74357239     0.15100
C1353       C  0.44487585  0.44183547  0.85067659    -0.14500
C1354       C  0.39437158  0.44026536  0.86586502    -0.29600
H1355       H  0.48034843  0.44163077  0.86992927     0.14600
H1356       H  0.35916835  0.43926955  0.84643559     0.15100
C1357       C  0.43719969  0.36569150  0.73869556    -0.14500
C1358       C  0.40672684  0.38255409  0.73840063    -0.29600
H1359       H  0.48159493  0.36682502  0.73677291     0.14600
H1360       H  0.36225110  0.38146099  0.73864274     0.15100
C1361       C  0.40977581  0.81374401  0.09598347    -0.14500
C1362       C  0.37279042  0.81440663  0.12497378    -0.29600
H1363       H  0.45332660  0.81404062  0.10269246     0.14600
H1364       H  0.32942227  0.81533868  0.11780534     0.15100
C1365       C  0.34929265  0.75545897  0.23947521    -0.14500
C1366       C  0.64442590  0.74954161  0.23923652    -0.29600
H1367       H  0.37917034  0.74348174  0.23468328     0.14600
H1368       H  0.61154658  0.76034828  0.24435830     0.15100
C1369       C  0.54202439  0.93566725  0.12605716    -0.14500
C1370       C  0.50402513  0.93462467  0.09794264    -0.29600
H1371       H  0.58527576  0.93509944  0.11839339     0.14600
H1372       H  0.46080049  0.93413775  0.10570831     0.15100
C1373       C  0.56666626  0.99857214  0.23529406    -0.14500
C1374       C  0.61946286  0.00358652  0.24060697    -0.29600
H1375       H  0.53667126  0.01037963  0.22949426     0.14600
H1376       H  0.64977853  0.99187754  0.24624908     0.15100
C1377       C  0.44078298  0.88597774  0.24331442    -0.14500
C1378       C  0.47041531  0.86893461  0.24087146    -0.29600
H1379       H  0.39628818  0.88507856  0.24409190     0.14600
H1380       H  0.51481258  0.86991232  0.23867764     0.15100
C1381       C  0.54821808  0.81864246  0.60175570    -0.14500
C1382       C  0.51280737  0.81539868  0.63098713    -0.29600
H1383       H  0.59158370  0.82043855  0.60829405     0.14600
H1384       H  0.46909801  0.81457611  0.62499303     0.15100
C1385       C  0.55006532  0.75884970  0.49106079    -0.14500
C1386       C  0.60062573  0.75102459  0.48958947    -0.29600
H1387       H  0.51510287  0.74879588  0.49467763     0.14600
H1388       H  0.63613399  0.76077931  0.48589968     0.15100
C1389       C  0.48128435  0.81246763  0.37210457    -0.14500
C1390       C  0.43126429  0.81096876  0.35630954    -0.29600
H1391       H  0.51702812  0.81325414  0.35311922     0.14600
H1392       H  0.39525710  0.81139446  0.37507422     0.15100
C1393       C  0.35024123  0.93769448  0.62216616    -0.14500
C1394       C  0.39925890  0.94083457  0.60510275    -0.29600
H1395       H  0.31308528  0.93755331  0.60461168     0.14600
H1396       H  0.43578443  0.94249009  0.62306262     0.15100
C1397       C  0.62856663  0.00369213  0.48821057    -0.14500
C1398       C  0.68239679  0.00029414  0.49305836    -0.29600
H1399       H  0.60080290  0.99103103  0.48358916     0.14600
H1400       H  0.37506331  0.01522842  0.49947704     0.15100
C1401       C  0.48104965  0.94927102  0.35537805    -0.14500
C1402       C  0.43135187  0.95064069  0.37184029    -0.29600
H1403       H  0.51720022  0.94840872  0.37393465     0.14600
H1404       H  0.39477103  0.94989551  0.35372614     0.15100
C1405       C  0.48611210  0.89190386  0.48411221    -0.14500
C1406       C  0.45560205  0.87507566  0.48586876    -0.29600
H1407       H  0.53056778  0.89085377  0.48325952     0.14600
H1408       H  0.41126636  0.87647639  0.48804999     0.15100
O1409       O  0.75678102  0.97729017  0.49713100    -0.69800
O1410       O  0.82094176  0.92492180  0.49439830    -0.70000
O1411       O  0.79971583  0.95351071  0.44077964    -0.69900
O1412       O  0.77657067  0.94838134  0.55078043    -0.69900
O1413       O  0.69610181  0.93550319  0.53940616    -0.69900
O1414       O  0.71912849  0.94049448  0.43035198    -0.69900
O1415       O  0.74075037  0.91165488  0.48384135    -0.69800
O1416       O  0.67642051  0.96423533  0.48613366    -0.70000
V1417       V  0.78694512  0.95079018  0.49559071     1.35200
V1418       V  0.70976550  0.93818084  0.48514313     1.35200
C1419       C  0.70592000  0.97972137  0.49207568     0.79400
C1420       C  0.79197062  0.90937168  0.48863440     0.79500
C1421       C  0.76300137  0.94781142  0.41693279     0.79400
C1422       C  0.73182348  0.94129147  0.56368724     0.79300
O1423       O  0.77790187  0.83700413  0.49251885    -0.69800
O1424       O  0.82581720  0.78286319  0.49145660    -0.70000
O1425       O  0.81598012  0.81110450  0.54705667    -0.69900
O1426       O  0.79043343  0.80873471  0.43684127    -0.69900
O1427       O  0.87414007  0.81873595  0.42662421    -0.69900
O1428       O  0.89943762  0.82107500  0.53569778    -0.69900
O1429       O  0.90985004  0.79240674  0.48080656    -0.69800
O1430       O  0.86097351  0.84763854  0.48205276    -0.70000
V1431       V  0.80418760  0.81018025  0.49177113     1.35200
V1432       V  0.88446451  0.81985479  0.48148521     1.35200
C1433       C  0.81046824  0.85153737  0.48732179     0.79400
C1434       C  0.87537304  0.77829915  0.48625985     0.79500
C1435       C  0.86299535  0.81594980  0.55989199     0.79400
C1436       C  0.82857156  0.81311364  0.41304112     0.79300
O1437       O  0.87225943  0.93991321  0.30274221    -0.69800
O1438       O  0.89652176  0.93326509  0.19437164    -0.70000
O1439       O  0.91591930  0.96286206  0.24618151    -0.69900
O1440       O  0.85098985  0.91030657  0.25040505    -0.69900
O1441       O  0.77112094  0.92355443  0.23850383    -0.69900
O1442       O  0.83551234  0.97563328  0.23407395    -0.69900
O1443       O  0.81646986  0.94613043  0.18142735    -0.69800
O1444       O  0.79173247  0.95272830  0.29117601    -0.70000
V1445       V  0.88227251  0.93678865  0.24820994     1.35200
V1446       V  0.80527930  0.94928302  0.23653371     1.35200
C1447       C  0.82819642  0.94739228  0.31551771     0.79400
C1448       C  0.86139582  0.93868668  0.16946413     0.79500
C1449       C  0.88625237  0.97819967  0.23928951     0.79400
C1450       C  0.79986649  0.90804998  0.24494578     0.79300
O1451       O  0.76157794  0.78200178  0.23043070    -0.69800
O1452       O  0.81147687  0.83595174  0.23328719    -0.70000
O1453       O  0.80009710  0.80678455  0.28674736    -0.69900
O1454       O  0.77028388  0.81173865  0.17702936    -0.69900
O1455       O  0.68783290  0.82191730  0.19124394    -0.69900
O1456       O  0.71670018  0.81655264  0.29912898    -0.69900
O1457       O  0.72933791  0.84669458  0.24684304    -0.69800
O1458       O  0.67831181  0.79176419  0.24321149    -0.70000
V1459       V  0.78420249  0.80930242  0.23208459     1.35200
V1460       V  0.70468263  0.81908374  0.24482398     1.35200
C1461       C  0.71203423  0.77755286  0.23621667     0.79400
C1462       C  0.77978478  0.85045886  0.24097621     0.79500
C1463       C  0.76287974  0.81096006  0.31149171     0.79400
C1464       C  0.72321328  0.81753359  0.16574794     0.79300
O1465       O  0.81449863  0.47116175  0.73445414    -0.69800
O1466       O  0.76199819  0.41732071  0.73273040    -0.70000
O1467       O  0.77246679  0.44546560  0.78832063    -0.69900
O1468       O  0.80561096  0.44253800  0.67912678    -0.69900
O1469       O  0.88751213  0.43179149  0.69325186    -0.69900
O1470       O  0.85472502  0.43476930  0.80147112    -0.69900
O1471       O  0.84361549  0.40601255  0.74604023    -0.69800
O1472       O  0.89668449  0.46048258  0.74788647    -0.70000
V1473       V  0.79028448  0.44393356  0.73392662     1.35200
V1474       V  0.86899486  0.43344081  0.74696929     1.35200
C1475       C  0.86440221  0.47504483  0.74052452     0.79400
C1476       C  0.79329950  0.40253809  0.73934892     0.79500
C1477       C  0.80804343  0.44023935  0.81341747     0.79400
C1478       C  0.85282630  0.43695829  0.66781105     0.79300
O1479       O  0.74456393  0.27671483  0.72873855    -0.69800
O1480       O  0.80426124  0.32975372  0.72794711    -0.70000
O1481       O  0.79690383  0.30038980  0.78163980    -0.69900
O1482       O  0.75068761  0.30661622  0.67518543    -0.69900
O1483       O  0.99191874  0.31895003  0.69627286    -0.69900
O1484       O  0.71763228  0.31190496  0.80058373    -0.69900
O1485       O  0.72620850  0.34191871  0.74785790    -0.69800
O1486       O  0.98355317  0.28914183  0.74865578    -0.70000
V1487       V  0.77258553  0.30356310  0.72869971     1.35200
V1488       V  0.01292326  0.31597925  0.74906141     1.35200
C1489       C  0.01496221  0.27457226  0.73951556     0.79400
C1490       C  0.77572010  0.34482842  0.73796366     0.79500
C1491       C  0.76453795  0.30524370  0.80916061     0.79400
C1492       C  0.02523617  0.31441009  0.66952908     0.79300
O1493       O  0.76760282  0.40817121  0.99059087    -0.69800
O1494       O  0.73655521  0.46438582  0.99358310    -0.70000
O1495       O  0.73302196  0.43448862  0.04622256    -0.69900
O1496       O  0.76963211  0.43832172  0.93782167    -0.69900
O1497       O  0.01001687  0.43408106  0.92225244    -0.69900
O1498       O  0.97980231  0.42920592  0.03047938    -0.69900
O1499       O  0.96606895  0.45842314  0.97730796    -0.69800
O1500       O  0.68309765  0.40160677  0.97502771    -0.70000
V1501       V  0.75008294  0.43613853  0.99175629     1.35200
V1502       V  0.99716998  0.43175774  0.97676280     1.35200
C1503       C  0.73116664  0.39528782  0.98201479     0.79400
C1504       C  0.99698059  0.47337483  0.98497478     0.79500
C1505       C  0.68388502  0.43126940  0.05664476     0.79400
C1506       C  0.73285809  0.43627881  0.91190455     0.79300
O1507       O  0.83509561  0.27677624  0.98861034    -0.69800
O1508       O  0.78170525  0.33118604  0.98320619    -0.70000
O1509       O  0.80039654  0.30139539  0.93104381    -0.69900
O1510       O  0.81541271  0.30656299  0.04075020    -0.69900
O1511       O  0.90007062  0.31617581  0.03350007    -0.69900
O1512       O  0.88277247  0.31310418  0.92248740    -0.69900
O1513       O  0.86567828  0.34181186  0.97754855    -0.69800
O1514       O  0.91793694  0.28773742  0.97867759    -0.70000
V1515       V  0.80980306  0.30415196  0.98570622     1.35200
V1516       V  0.88998299  0.31451941  0.97816727     1.35200
C1517       C  0.88573379  0.27304565  0.98435554     0.79400
C1518       C  0.81512906  0.34579365  0.98018527     0.79500
C1519       C  0.83833286  0.30663333  0.90796247     0.79400
C1520       C  0.86018010  0.31204210  0.05589197     0.79300
O1521       O  0.77759216  0.18613002  0.55230208    -0.69800
O1522       O  0.74619164  0.18255979  0.44422677    -0.70000
O1523       O  0.79022031  0.15718879  0.49719165    -0.69900
O1524       O  0.73511048  0.21140046  0.49846968    -0.69900
O1525       O  0.81694200  0.22239578  0.48487126    -0.69900
O1526       O  0.87169513  0.16877544  0.48436358    -0.69900
O1527       O  0.82791899  0.19351221  0.43010582    -0.69800
O1528       O  0.85946811  0.19733004  0.53945030    -0.70000
V1529       V  0.76395418  0.18449438  0.49787224     1.35200
V1530       V  0.84241333  0.19530268  0.48498743     1.35200
C1531       C  0.82360204  0.19218717  0.56441032     0.79400
C1532       C  0.78099491  0.18766628  0.41881735     0.79500
C1533       C  0.84060468  0.15385991  0.49046394     0.79400
C1534       C  0.76688489  0.22608190  0.49099842     0.79300
O1535       O  0.88488553  0.02754269  0.48037700    -0.69800
O1536       O  0.82689092  0.08091594  0.48018964    -0.70000
O1537       O  0.87090810  0.05626682  0.42559474    -0.69900
O1538       O  0.84155694  0.05257707  0.53495137    -0.69900
O1539       O  0.92283144  0.06452045  0.54722568    -0.69900
O1540       O  0.95238867  0.06785854  0.43836407    -0.69900
O1541       O  0.90801444  0.09304895  0.49218097    -0.69800
O1542       O  0.96597201  0.03945920  0.49326133    -0.70000
V1543       V  0.85768665  0.05452948  0.48049513     1.35200
V1544       V  0.93568365  0.06601911  0.49252258     1.35200
C1545       C  0.93523642  0.02438942  0.48655465     0.79400
C1546       C  0.85728571  0.09603952  0.48649089     0.79500
C1547       C  0.91702168  0.06242587  0.41344806     0.79400
C1548       C  0.87714342  0.05823440  0.55964584     0.79300
O1549       O  0.80949688  0.03103791  0.74049783    -0.69800
O1550       O  0.84562043  0.08698053  0.73664701    -0.70000
O1551       O  0.81294436  0.06140150  0.79300934    -0.69900
O1552       O  0.84206213  0.05676245  0.68398933    -0.69900
O1553       O  0.75717062  0.06437914  0.67138494    -0.69900
O1554       O  0.72749403  0.06811196  0.78040215    -0.69900
O1555       O  0.76025503  0.09433217  0.72507104    -0.69800
O1556       O  0.72476628  0.03850554  0.72708338    -0.70000
V1557       V  0.82591594  0.05918634  0.73827010     1.35200
V1558       V  0.74414383  0.06621278  0.72616729     1.35200
C1559       C  0.76077178  0.02529628  0.73463116     0.79400
C1560       C  0.80894779  0.10016778  0.73065670     0.79500
C1561       C  0.76510288  0.06535932  0.80524168     0.79400
C1562       C  0.80451279  0.05982669  0.65912824     0.79300
O1563       O  0.93498017  0.15661083  0.73115177    -0.69800
O1564       O  0.96809535  0.21262142  0.73525819    -0.70000
O1565       O  0.96377519  0.18277662  0.78783774    -0.69900
O1566       O  0.93984527  0.18677259  0.67832194    -0.69900
O1567       O  0.85424034  0.19412285  0.68899575    -0.69900
O1568       O  0.87752584  0.18888211  0.79874235    -0.69900
O1569       O  0.88262926  0.21962211  0.74720631    -0.69800
O1570       O  0.84877973  0.16353831  0.74042101    -0.70000
V1571       V  0.94994982  0.18480880  0.73335105     1.35200
V1572       V  0.86740977  0.19139717  0.74363092     1.35200
C1573       C  0.88612957  0.15055180  0.73480060     0.79400
C1574       C  0.93128429  0.22564797  0.74221660     0.79500
C1575       C  0.92498579  0.18530211  0.81195587     0.79400
C1576       C  0.89308123  0.19122536  0.66498973     0.79300
O1577       O  0.86218191  0.52728230  0.97429720    -0.69800
O1578       O  0.82428576  0.58308013  0.97498624    -0.70000
O1579       O  0.87287556  0.55796505  0.92322081    -0.69900
O1580       O  0.81476465  0.55273321  0.02636717    -0.69900
O1581       O  0.89495439  0.56028520  0.04999298    -0.69900
O1582       O  0.95290328  0.56489719  0.94787174    -0.69900
O1583       O  0.90468482  0.59064787  0.99824966    -0.69800
O1584       O  0.94194116  0.53468414  0.99878286    -0.70000
V1585       V  0.84505210  0.55539248  0.97516264     1.35200
V1586       V  0.92195518  0.56249023  0.99833091     1.35200
C1587       C  0.90883661  0.52150807  0.98577315     0.79400
C1588       C  0.85783613  0.59633988  0.98661468     0.79500
C1589       C  0.92318394  0.56206716  0.91822238     0.79400
C1590       C  0.84519922  0.55591261  0.05573594     0.79300
O1591       O  0.80954858  0.68989147  0.04765042    -0.69800
O1592       O  0.77821615  0.68599744  0.93927326    -0.70000
O1593       O  0.81330118  0.65996060  0.99419162    -0.69900
O1594       O  0.77548626  0.71591962  0.99220589    -0.69900
O1595       O  0.86005582  0.72353874  0.97861889    -0.69900
O1596       O  0.89804066  0.66775300  0.98140906    -0.69900
O1597       O  0.86293817  0.69335957  0.92554802    -0.69800
O1598       O  0.89437955  0.69743671  0.03459385    -0.70000
V1599       V  0.79583514  0.68809833  0.99312917     1.35200
V1600       V  0.87719419  0.69542478  0.98028856     1.35200
C1601       C  0.85726186  0.69392659  0.05963799     0.79400
C1602       C  0.81505374  0.68900897  0.91395148     0.79500
C1603       C  0.86232061  0.65438331  0.98821806     0.79400
C1604       C  0.81126286  0.72923911  0.98449567     0.79300
O1605       O  0.86583643  0.58714902  0.24494555    -0.69800
O1606       O  0.82026698  0.53208073  0.25101547    -0.70000
O1607       O  0.86767663  0.55541018  0.19595046    -0.69900
O1608       O  0.81782901  0.56388274  0.30006258    -0.69900
O1609       O  0.73715555  0.57191782  0.27791402    -0.69900
O1610       O  0.78722099  0.56384819  0.17393744    -0.69900
O1611       O  0.73995912  0.54040401  0.22867660    -0.69800
O1612       O  0.78507192  0.59561683  0.22365834    -0.70000
V1613       V  0.84133114  0.55979825  0.24758132     1.35200
V1614       V  0.76398723  0.56782424  0.22642343     1.35200
C1615       C  0.83324772  0.60076666  0.23324299     0.79400
C1616       C  0.77232966  0.52687023  0.24114813     0.79500
C1617       C  0.83591348  0.55825132  0.16726260     0.79400
C1618       C  0.76860781  0.56894264  0.30665838     0.79300
O1619       O  0.92717682  0.71901029  0.23934375    -0.69800
O1620       O  0.88458825  0.66364654  0.23737865    -0.70000
O1621       O  0.92075356  0.68939243  0.29291790    -0.69900
O1622       O  0.89195321  0.69330330  0.18378140    -0.69900
O1623       O  0.97577687  0.68410822  0.17137052    -0.69900
O1624       O  0.00538710  0.68131564  0.28041521    -0.69900
O1625       O  0.96898781  0.65474336  0.22633648    -0.69800
O1626       O  0.01112995  0.71036742  0.22595454    -0.70000
V1627       V  0.90776160  0.69114035  0.23811565     1.35200
V1628       V  0.98864657  0.68275345  0.22619217     1.35200
C1629       C  0.97628478  0.72413390  0.23306035     0.79400
C1630       C  0.91944910  0.64973925  0.23188692     0.79500
C1631       C  0.96831844  0.68505660  0.30521815     0.79400
C1632       C  0.92916548  0.68946585  0.15899696     0.79300
O1633       O  0.91781308  0.91741920  0.72204481    -0.69800
O1634       O  0.98548862  0.96917401  0.72939305    -0.70000
O1635       O  0.98174493  0.94027479  0.67468168    -0.69900
O1636       O  0.92163284  0.94642829  0.77651702    -0.69900
O1637       O  0.67194662  0.93686782  0.79620122    -0.69900
O1638       O  0.69594629  0.93345315  0.68686485    -0.69900
O1639       O  0.70905997  0.96228407  0.74093759    -0.69800
O1640       O  0.65696080  0.90787339  0.74199674    -0.70000
V1641       V  0.95312866  0.94304579  0.72607385     1.35200
V1642       V  0.68183026  0.93526308  0.74128523     1.35200
C1643       C  0.94297933  0.90173246  0.73324870     0.79400
C1644       C  0.67582798  0.97670150  0.73510674     0.79500
C1645       C  0.65900422  0.93842410  0.66284395     0.79400
C1646       C  0.94764265  0.94032226  0.80618569     0.79300
O1647       O  0.89449350  0.77591648  0.73702043    -0.69800
O1648       O  0.94980878  0.82934893  0.73461204    -0.70000
O1649       O  0.94017878  0.80124732  0.79013094    -0.69900
O1650       O  0.90300415  0.80475189  0.68175497    -0.69900
O1651       O  0.82158185  0.81543619  0.69754833    -0.69900
O1652       O  0.85956499  0.81308853  0.80491061    -0.69900
O1653       O  0.86896880  0.84136010  0.74822407    -0.69800
O1654       O  0.81377372  0.78713309  0.75320614    -0.70000
V1655       V  0.92019269  0.80298025  0.73615937     1.35200
V1656       V  0.84256576  0.81404391  0.75079673     1.35200
C1657       C  0.84492588  0.77232973  0.74499695     0.79400
C1658       C  0.91926112  0.84441507  0.74069231     0.79500
C1659       C  0.90621157  0.80706880  0.81589818     0.79400
C1660       C  0.85573843  0.81071228  0.67138752     0.79300
O1661       O  0.92319837  0.97152647  0.99843031    -0.69800
O1662       O  0.94876307  0.91462862  0.99802020    -0.70000
O1663       O  0.96279742  0.94441448  0.94634313    -0.69900
O1664       O  0.90983900  0.94150037  0.05022356    -0.69900
O1665       O  0.82661695  0.93728855  0.02902319    -0.69900
O1666       O  0.88064274  0.93873293  0.92420793    -0.69900
O1667       O  0.86529515  0.90952628  0.97799303    -0.69800
O1668       O  0.84134471  0.96620916  0.97551450    -0.70000
V1669       V  0.93450524  0.94293640  0.99783425     1.35200
V1670       V  0.85509653  0.93803480  0.97700596     1.35200
C1671       C  0.87734499  0.97849304  0.98759613     0.79400
C1672       C  0.91130547  0.90242524  0.98790849     0.79500
C1673       C  0.93117038  0.94165631  0.91762787     0.79400
C1674       C  0.85938392  0.93919580  0.05747494     0.79300
O1675       O  0.71776343  0.81744738  0.91967845    -0.69800
O1676       O  0.75858916  0.82293076  0.02637634    -0.70000
O1677       O  0.76135814  0.79274901  0.97407311    -0.69900
O1678       O  0.71317166  0.84794152  0.97258691    -0.69900
O1679       O  0.94355185  0.83783157  0.99196902    -0.69900
O1680       O  0.67959914  0.78361091  0.99223427    -0.69900
O1681       O  0.67650622  0.81402195  0.04417961    -0.69800
O1682       O  0.94469472  0.80754179  0.93912864    -0.70000
V1683       V  0.73607612  0.82016430  0.97345589     1.35200
V1684       V  0.96083974  0.80972429  0.99332692     1.35200
C1685       C  0.67043275  0.81147157  0.91014009     0.79400
C1686       C  0.72504638  0.81897236  0.05343529     0.79500
C1687       C  0.72836501  0.77882884  0.98398517     0.79400
C1688       C  0.66370121  0.85240570  0.98033612     0.79300
O1689       O  0.97337612  0.56151786  0.67561828    -0.69800
O1690       O  0.91467020  0.56687508  0.77765021    -0.70000
O1691       O  0.96709174  0.59193829  0.72799561    -0.69900
O1692       O  0.92213841  0.53659561  0.72628031    -0.69900
O1693       O  0.00113530  0.52777416  0.75027890    -0.69900
O1694       O  0.70836519  0.57858209  0.74905477    -0.69900
O1695       O  0.99310954  0.55797982  0.80250914    -0.69800
O1696       O  0.05237245  0.55281234  0.69976906    -0.70000
V1697       V  0.94592532  0.56407611  0.72725919     1.35200
V1698       V  0.02150009  0.55550252  0.75076444     1.35200
C1699       C  0.02278922  0.55647443  0.67019729     0.79400
C1700       C  0.94340739  0.56302684  0.80736768     0.79500
C1701       C  0.01430978  0.59668412  0.74052823     0.79400
C1702       C  0.95378589  0.52283672  0.73886844     0.79300
O1703       O  0.74994970  0.68459605  0.68229246    -0.69800
O1704       O  0.77606625  0.68173135  0.79147452    -0.70000
O1705       O  0.73785979  0.65559180  0.73705202    -0.69900
O1706       O  0.78683481  0.71049126  0.73728788    -0.69900
O1707       O  0.70359998  0.72054620  0.74916260    -0.69900
O1708       O  0.65444547  0.66597168  0.74714290    -0.69900
O1709       O  0.69231286  0.69130947  0.80304998    -0.69800
O1710       O  0.66674205  0.69501622  0.69313317    -0.70000
V1711       V  0.76098805  0.68325816  0.73719321     1.35200
V1712       V  0.68088293  0.69300563  0.74790776     1.35200
C1713       C  0.70413930  0.69025352  0.66903539     0.79400
C1714       C  0.73918995  0.68641194  0.81583819     0.79500
C1715       C  0.68748196  0.65150159  0.74172851     0.79400
C1716       C  0.75356691  0.72483196  0.74405823     0.79300
O1717       O  0.69478931  0.53141505  0.47127418    -0.69800
O1718       O  0.66320700  0.58789673  0.47945936    -0.70000
O1719       O  0.70634172  0.56369260  0.42381143    -0.69900
O1720       O  0.65154315  0.55588648  0.52681459    -0.69900
O1721       O  0.73297588  0.56170919  0.55013594    -0.69900
O1722       O  0.78824976  0.56834879  0.44725134    -0.69900
O1723       O  0.74564271  0.59319043  0.50144845    -0.69800
O1724       O  0.77551412  0.53712974  0.49573722    -0.70000
V1725       V  0.68048299  0.55981478  0.47574992     1.35200
V1726       V  0.75888758  0.56499374  0.49822991     1.35200
C1727       C  0.74102505  0.52472291  0.48200242     0.79400
C1728       C  0.69937196  0.60009998  0.49174588     0.79500
C1729       C  0.75678162  0.56709245  0.41803377     0.79400
C1730       C  0.68295605  0.55768950  0.55600332     0.79300
O1731       O  0.93649584  0.68899442  0.55010355    -0.69800
O1732       O  0.91376554  0.68554412  0.44069815    -0.70000
O1733       O  0.93847459  0.65879839  0.49695619    -0.69900
O1734       O  0.91307271  0.71546664  0.49331938    -0.69900
O1735       O  0.65484086  0.72107643  0.48730901    -0.69900
O1736       O  0.67232056  0.66404149  0.48950587    -0.69900
O1737       O  0.65000049  0.69134270  0.43363398    -0.69800
O1738       O  0.67612624  0.69355919  0.54354582    -0.70000
V1739       V  0.92722923  0.68728549  0.49513216     1.35200
V1740       V  0.66165825  0.69242085  0.48874685     1.35200
C1741       C  0.63672139  0.69186165  0.56751280     0.79400
C1742       C  0.95304887  0.68725122  0.41691315     0.79500
C1743       C  0.63177268  0.65237380  0.49419766     0.79400
C1744       C  0.95189995  0.72775001  0.48689816     0.79300
O1745       O  0.84699205  0.43686971  0.42200745    -0.69800
O1746       O  0.81405893  0.43251814  0.52992343    -0.70000
O1747       O  0.79909397  0.46113763  0.47544394    -0.69900
O1748       O  0.86452476  0.40823217  0.47707964    -0.69900
O1749       O  0.94337744  0.42211906  0.48974193    -0.69900
O1750       O  0.87849683  0.47378236  0.49097405    -0.69900
O1751       O  0.89398102  0.44492087  0.54475720    -0.69800
O1752       O  0.92572144  0.45056908  0.43580605    -0.70000
V1753       V  0.83271280  0.43487050  0.47635382     1.35200
V1754       V  0.90874845  0.44759545  0.49005431     1.35200
C1755       C  0.89155765  0.44446200  0.41041884     0.79400
C1756       C  0.84780997  0.43811090  0.55568852     0.79500
C1757       C  0.82843746  0.47643557  0.48359182     0.79400
C1758       C  0.91569182  0.40639883  0.48329995     0.79300
O1759       O  0.67128041  0.34303915  0.47458811    -0.69800
O1760       O  0.71056715  0.28730607  0.47597234    -0.70000
O1761       O  0.66275675  0.31212090  0.42367497    -0.69900
O1762       O  0.71973789  0.31786834  0.52643947    -0.69900
O1763       O  0.97854137  0.31077501  0.54701238    -0.69900
O1764       O  0.94573374  0.30574523  0.43789210    -0.69900
O1765       O  0.99733710  0.28288062  0.49172967    -0.69800
O1766       O  0.92462285  0.33342535  0.49344214    -0.70000
V1767       V  0.68942379  0.31497585  0.47556745     1.35200
V1768       V  0.96300018  0.30852609  0.49229883     1.35200
C1769       C  0.94983590  0.34962380  0.48603619     0.79400
C1770       C  0.67794417  0.27410347  0.48932315     0.79500
C1771       C  0.98008743  0.31203315  0.41282229     0.79400
C1772       C  0.68961598  0.31491358  0.55593423     0.79300
O1773       O  0.96868522  0.47408952  0.23028973    -0.69800
O1774       O  0.92779678  0.41885650  0.23278227    -0.70000
O1775       O  0.93047743  0.44882360  0.28581640    -0.69900
O1776       O  0.96790459  0.44370903  0.17761382    -0.69900
O1777       O  0.71670122  0.43425436  0.19590772    -0.69900
O1778       O  0.67222880  0.43859784  0.30198206    -0.69900
O1779       O  0.67004867  0.40893431  0.24776292    -0.69800
O1780       O  0.71793381  0.46400834  0.24942218    -0.70000
V1781       V  0.95033754  0.44621094  0.23192911     1.35200
V1782       V  0.69261692  0.43665037  0.24848481     1.35200
C1783       C  0.68565836  0.47808676  0.23920716     0.79400
C1784       C  0.96209330  0.40508615  0.24007120     0.79500
C1785       C  0.96617901  0.44525482  0.31189869     0.79400
C1786       C  0.68349648  0.43765234  0.16839162     0.79300
O1787       O  0.93047920  0.27824869  0.23081540    -0.69800
O1788       O  0.63907875  0.33193797  0.22667874    -0.70000
O1789       O  0.96034558  0.30333736  0.28926294    -0.69900
O1790       O  0.95711394  0.30700354  0.17842200    -0.69900
O1791       O  0.87316343  0.31797727  0.18140548    -0.69900
O1792       O  0.87757665  0.31545235  0.29257159    -0.69900
O1793       O  0.90361440  0.34361820  0.23880574    -0.69800
O1794       O  0.84741846  0.28999563  0.23514258    -0.70000
V1795       V  0.95704553  0.30532249  0.23396240     1.35200
V1796       V  0.87708430  0.31656426  0.23688827     1.35200
C1797       C  0.87940143  0.27499047  0.23213575     0.79400
C1798       C  0.95477091  0.34692790  0.23886641     0.79500
C1799       C  0.92000068  0.30907174  0.30981131     0.79400
C1800       C  0.91428217  0.31285925  0.16101780     0.79300
O1801       O  0.74745179  0.03296382  0.98364157    -0.69800
O1802       O  0.69916009  0.08732397  0.98698406    -0.70000
O1803       O  0.73485555  0.06228752  0.93034592    -0.69900
O1804       O  0.71267457  0.05812463  0.04049134    -0.69900
O1805       O  0.79613057  0.06850142  0.05029772    -0.69900
O1806       O  0.81928703  0.07142123  0.94057503    -0.69900
O1807       O  0.78304239  0.09760140  0.99530500    -0.69800
O1808       O  0.83130672  0.04253762  0.99481261    -0.70000
V1809       V  0.72521258  0.06037018  0.98559524     1.35200
V1810       V  0.80580029  0.06987683  0.99514967     1.35200
C1811       C  0.79727183  0.02843936  0.98832678     0.79400
C1812       C  0.73259805  0.10172728  0.99109170     0.79500
C1813       C  0.78131910  0.06723563  0.91680658     0.79400
C1814       C  0.75074556  0.06268073  0.06413052     0.79300
O1815       O  0.67056796  0.16288325  0.99150373    -0.69800
O1816       O  0.95225134  0.21198601  0.99083554    -0.70000
O1817       O  0.96360674  0.18260519  0.93705823    -0.69900
O1818       O  0.66272174  0.19240436  0.04528641    -0.69900
O1819       O  0.74202540  0.20423786  0.02735678    -0.69900
O1820       O  0.70187572  0.19775698  0.92075668    -0.69900
O1821       O  0.69282366  0.22789675  0.97332225    -0.69800
O1822       O  0.75074228  0.17440846  0.97493267    -0.70000
V1823       V  0.64354850  0.18991223  0.99148288     1.35200
V1824       V  0.72021445  0.20090634  0.97441661     1.35200
C1825       C  0.72056269  0.15955137  0.98374416     0.79400
C1826       C  0.64325401  0.23127850  0.98210076     0.79500
C1827       C  0.65465132  0.19156330  0.91137068     0.79400
C1828       C  0.70983155  0.19892031  0.05442636     0.79300
O1829       O  0.98431634  0.06491886  0.18116948    -0.69800
O1830       O  0.95569135  0.06739444  0.29017283    -0.70000
O1831       O  0.99348427  0.09369960  0.23656985    -0.69900
O1832       O  0.94727596  0.03887863  0.23501806    -0.69900
O1833       O  0.68752313  0.02928235  0.24499507    -0.69900
O1834       O  0.73550302  0.08398882  0.24489701    -0.69900
O1835       O  0.69920549  0.05812866  0.30014791    -0.69800
O1836       O  0.72302149  0.05550023  0.18979475    -0.70000
V1837       V  0.97193412  0.06605957  0.23593421     1.35200
V1838       V  0.70967636  0.05690155  0.24479433     1.35200
C1839       C  0.68516626  0.06042324  0.16625643     0.79400
C1840       C  0.99248982  0.06311047  0.31483152     0.79500
C1841       C  0.70205535  0.09838819  0.24031676     0.79400
C1842       C  0.98070484  0.02462094  0.24148268     0.79300
O1843       O  0.73491586  0.22523057  0.24529929    -0.69800
O1844       O  0.68087416  0.17123605  0.24860200    -0.70000
O1845       O  0.73277201  0.19572833  0.29937119    -0.69900
O1846       O  0.68295012  0.20053868  0.19454193    -0.69900
O1847       O  0.76199637  0.18971897  0.17372543    -0.69900
O1848       O  0.81194283  0.18494883  0.27875128    -0.69900
O1849       O  0.75985303  0.16014391  0.22825678    -0.69800
O1850       O  0.81378209  0.21416144  0.22467067    -0.70000
V1851       V  0.70946990  0.19799144  0.24656917     1.35200
V1852       V  0.78528204  0.18741321  0.22666581     1.35200
C1853       C  0.78367949  0.22886374  0.23484401     0.79400
C1854       C  0.71117781  0.15649679  0.23912571     0.79500
C1855       C  0.78084765  0.18965277  0.30691889     0.79400
C1856       C  0.71402800  0.19595643  0.16629538     0.79300
C1857       C  0.68950239  0.13561656  0.24065143    -0.14500
C1858       C  0.72268877  0.11939983  0.23928495    -0.29600
H1859       H  0.98283381  0.13205347  0.24482537     0.14600
H1860       H  0.76683690  0.12155046  0.23780519     0.15100
C1861       C  0.72853686  0.19946173  0.09542215    -0.14500
C1862       C  0.69395037  0.19745808  0.12573050    -0.29600
H1863       H  0.77225400  0.20111726  0.10077236     0.14600
H1864       H  0.64995903  0.19696038  0.12073082     0.15100
C1865       C  0.69325128  0.06023594  0.12342096    -0.14500
C1866       C  0.74317505  0.06136009  0.10697332    -0.29600
H1867       H  0.65694846  0.06048747  0.10497460     0.14600
H1868       H  0.77934298  0.06236014  0.12546337     0.15100
C1869       C  0.74371304  0.13888523  0.98518652    -0.14500
C1870       C  0.71160365  0.12265113  0.99078100    -0.29600
H1871       H  0.78758158  0.13696559  0.98092752     0.14600
H1872       H  0.66751091  0.12463188  0.99355313     0.15100
C1873       C  0.85814096  0.25408427  0.23026300    -0.14500
C1874       C  0.80462565  0.24982694  0.23512248    -0.29600
H1875       H  0.88741398  0.24188767  0.22564299     0.14600
H1876       H  0.77556589  0.26197517  0.24078733     0.15100
C1877       C  0.94314349  0.38388228  0.23969898    -0.14500
C1878       C  0.97674955  0.36779257  0.24091525    -0.29600
H1879       H  0.89919150  0.38150477  0.23698718     0.14600
H1880       H  0.02085861  0.36994922  0.24262981     0.15100
C1881       C  0.97234773  0.30966860  0.37045037    -0.14500
C1882       C  0.92323902  0.30899784  0.35293661    -0.29600
H1883       H  0.54626120  0.30694988  0.37440160     0.14600
H1884       H  0.88584318  0.31009571  0.37013240     0.15100
C1885       C  0.90274047  0.44566270  0.36807050    -0.14500
C1886       C  0.95394589  0.44672595  0.35406139    -0.29600
H1887       H  0.86850152  0.44390092  0.34798255     0.14600
H1888       H  0.98836289  0.44708415  0.37427378     0.15100
C1889       C  0.91910770  0.36891760  0.48536008    -0.14500
C1890       C  0.94463643  0.38678789  0.48288683    -0.29600
H1891       H  0.87468704  0.36840295  0.48780809     0.14600
H1892       H  0.98919495  0.38720464  0.48203100     0.15100
C1893       C  0.75558115  0.50303214  0.47833942    -0.14500
C1894       C  0.80742692  0.49726190  0.48547235    -0.29600
H1895       H  0.72476398  0.49206116  0.46950415     0.14600
H1896       H  0.83760720  0.50864400  0.49359588     0.15100
C1897       C  0.68940495  0.62200841  0.49432826    -0.14500
C1898       C  0.63906162  0.63021709  0.49315135    -0.29600
H1899       H  0.72507927  0.63171197  0.49789938     0.14600
H1900       H  0.60298725  0.62059637  0.49136995     0.15100
C1901       C  0.69549854  0.69100027  0.62629162    -0.14500
C1902       C  0.64539170  0.69241691  0.61029096    -0.29600
H1903       H  0.73121942  0.68935763  0.60749541     0.14600
H1904       H  0.95305834  0.69435265  0.62475414     0.15100
C1905       C  0.04592997  0.55554824  0.63035536    -0.14500
C1906       C  0.66119427  0.55576571  0.59597005    -0.29600
H1907       H  0.09016837  0.55436406  0.62719707     0.14600
H1908       H  0.96945278  0.55731106  0.60169841     0.15100
C1909       C  0.69926189  0.61419445  0.74162422    -0.14500
C1910       C  0.66637904  0.63050773  0.74044636    -0.29600
H1911       H  0.74331427  0.61618849  0.74451411     0.14600
H1912       H  0.62218533  0.62845556  0.73922959     0.15100
C1913       C  0.86524508  0.00037722  0.98998692    -0.14500
C1914       C  0.81356401  0.00704068  0.98559772    -0.29600
H1915       H  0.89818346  0.01090196  0.99671795     0.14600
H1916       H  0.78090451  0.99624660  0.97971175     0.15100
C1917       C  0.92059717  0.88037856  0.98738161    -0.14500
C1918       C  0.97136397  0.87254928  0.98779142    -0.29600
H1919       H  0.88516707  0.87044877  0.98527931     0.14600
H1920       H  0.67543132  0.88557849  0.97789652     0.15100
C1921       C  0.82521526  0.75118774  0.74382889    -0.14500
C1922       C  0.77201507  0.74614368  0.74646762    -0.29600
H1923       H  0.85572394  0.73939303  0.73935999     0.14600
H1924       H  0.74126410  0.75787261  0.75067827     0.15100
C1925       C  0.91947976  0.80722692  0.85802785    -0.14500
C1926       C  0.97099805  0.80874281  0.87172535    -0.29600
H1927       H  0.88522073  0.80762947  0.87839762     0.14600
H1928       H  0.00526454  0.80948173  0.85141501     0.15100
C1929       C  0.95427511  0.94116240  0.87781978    -0.14500
C1930       C  0.92323697  0.94218537  0.84551266    -0.29600
H1931       H  0.99856039  0.93984547  0.87508999     0.14600
H1932       H  0.65368530  0.94234845  0.87129592     0.15100
C1933       C  0.91550496  0.88177509  0.73295556    -0.14500
C1934       C  0.94393760  0.86475188  0.73972682    -0.29600
H1935       H  0.87171633  0.88105414  0.72722719     0.14600
H1936       H  0.98816554  0.86557046  0.74342124     0.15100
C1937       C  0.94164936  0.68632716  0.37459743    -0.14500
C1938       C  0.98116569  0.68480230  0.34743680    -0.29600
H1939       H  0.89893463  0.68690813  0.36557080     0.14600
H1940       H  0.02382860  0.68352638  0.35629142     0.15100
C1941       C  0.77938086  0.56879665  0.37824642    -0.14500
C1942       C  0.74692144  0.57042008  0.34674628    -0.29600
H1943       H  0.82362695  0.56794037  0.37473084     0.14600
H1944       H  0.70280667  0.57189219  0.35037810     0.15100
C1945       C  0.70339352  0.49948368  0.23715762    -0.14500
C1946       C  0.75514723  0.50543080  0.24439714    -0.29600
H1947       H  0.67289121  0.51064748  0.22863351     0.14600
H1948       H  0.78572836  0.49433433  0.25308183     0.15100
C1949       C  0.90314058  0.62811888  0.23257656    -0.14500
C1950       C  0.85020708  0.62227810  0.23118936    -0.29600
H1951       H  0.93537725  0.61677147  0.23402643     0.14600
H1952       H  0.81817686  0.63360260  0.22791873     0.15100
C1953       C  0.80270608  0.68755495  0.87179431    -0.14500
C1954       C  0.75092197  0.68667028  0.85817460    -0.29600
H1955       H  0.83695192  0.68797515  0.85142207     0.14600
H1956       H  0.71649719  0.68730975  0.87836819     0.15100
C1957       C  0.79676367  0.75095856  0.98183413    -0.14500
C1958       C  0.74485699  0.75735051  0.98639723    -0.29600
H1959       H  0.82914685  0.76180669  0.97567018     0.14600
H1960       H  0.71278715  0.74640601  0.99279443     0.15100
C1961       C  0.86848976  0.69399803  0.10201899    -0.14500
C1962       C  0.91906057  0.69114202  0.11651989    -0.29600
H1963       H  0.83360692  0.69490973  0.12177542     0.14600
H1964       H  0.95360548  0.68920446  0.09672722     0.15100
C1965       C  0.91812477  0.56381601  0.84642979    -0.14500
C1966       C  0.94818306  0.56297648  0.87911618    -0.29600
H1967       H  0.87370335  0.56483526  0.84828795     0.14600
H1968       H  0.99268873  0.56279980  0.87724197     0.15100
C1969       C  0.82294307  0.55535047  0.09580403    -0.14500
C1970       C  0.85640137  0.55577587  0.12706546    -0.29600
H1971       H  0.77870060  0.55541091  0.09967141     0.14600
H1972       H  0.90056787  0.55489192  0.12305635     0.15100
C1973       C  0.84162226  0.61785642  0.98660330    -0.14500
C1974       C  0.87847588  0.63286800  0.98926455    -0.29600
H1975       H  0.79841320  0.62142650  0.98290869     0.14600
H1976       H  0.92194997  0.62931511  0.99083261     0.15100
C1977       C  0.93505822  0.18462662  0.85457518    -0.14500
C1978       C  0.98622952  0.18591126  0.86894225    -0.29600
H1979       H  0.90010222  0.18440111  0.87432349     0.14600
H1980       H  0.67335697  0.18963893  0.84865067     0.15100
C1981       C  0.75266185  0.06635707  0.84745969    -0.14500
C1982       C  0.79252110  0.06760772  0.87441651    -0.29600
H1983       H  0.70993523  0.06603198  0.85651169     0.14600
H1984       H  0.83506166  0.06879269  0.86516428     0.15100
C1985       C  0.74602708  0.00370694  0.73687114    -0.14500
C1986       C  0.69355507  0.99790238  0.73338721    -0.29600
H1987       H  0.77816720  0.99258653  0.74175806     0.14600
H1988       H  0.66172899  0.00918314  0.72871578     0.15100
C1989       C  0.87360346  0.12877306  0.73288452    -0.14500
C1990       C  0.82184914  0.12193418  0.73084447    -0.29600
H1991       H  0.90770256  0.11816210  0.73304749     0.14600
H1992       H  0.78787117  0.13257538  0.72950347     0.15100
C1993       C  0.92906661  0.06303030  0.37112278    -0.14500
C1994       C  0.98075638  0.06355567  0.35723613    -0.29600
H1995       H  0.89475531  0.06198299  0.35092207     0.14600
H1996       H  0.01521517  0.06333975  0.37740141     0.15100
C1997       C  0.86624561  0.05796592  0.60209099    -0.14500
C1998       C  0.81511124  0.05828243  0.61668596    -0.29600
H1999       H  0.90116763  0.05900491  0.62175864     0.14600
H2000       H  0.78016442  0.05845408  0.59694388     0.15100
C2001       C  0.76474282  0.18748101  0.37739006    -0.14500
C2002       C  0.80049345  0.18839349  0.34764824    -0.29600
H2003       H  0.72106688  0.18657871  0.37120711     0.14600
H2004       H  0.84435554  0.18812683  0.35322958     0.15100
C2005       C  0.69468579  0.25265291  0.49267728    -0.14500
C2006       C  0.74742059  0.24718111  0.48840221    -0.29600
H2007       H  0.66378058  0.24137480  0.49972209     0.14600
H2008       H  0.77808019  0.25867651  0.48207540     0.15100
C2009       C  0.83385446  0.19286297  0.60689506    -0.14500
C2010       C  0.88443466  0.19269531  0.62230091    -0.29600
H2011       H  0.79839662  0.19196111  0.62612588     0.14600
H2012       H  0.92008031  0.19243594  0.60318033     0.15100
C2013       C  0.86406320  0.13326299  0.48973896    -0.14500
C2014       C  0.83304773  0.11653905  0.48759186    -0.29600
H2015       H  0.90849153  0.13189978  0.48976995     0.14600
H2016       H  0.78867228  0.11788710  0.48611096     0.15100
C2017       C  0.86429812  0.31344059  0.09879239    -0.14500
C2018       C  0.91234656  0.31327734  0.11787289    -0.29600
H2019       H  0.82618079  0.31333109  0.11532546     0.14600
H2020       H  0.95057219  0.31210851  0.10163891     0.15100
C2021       C  0.90675086  0.25203142  0.98611426    -0.14500
C2022       C  0.96039706  0.24777372  0.98115784    -0.29600
H2023       H  0.87765281  0.23988162  0.99148171     0.14600
H2024       H  0.64982819  0.26415941  0.97289813     0.15100
C2025       C  0.66649602  0.43223510  0.09802360    -0.14500
C2026       C  0.70189567  0.43531218  0.12746183    -0.29600
H2027       H  0.95490425  0.43223136  0.10441963     0.14600
H2028       H  0.74568718  0.43573384  0.12158549     0.15100
C2029       C  0.97706805  0.49437145  0.98786169    -0.14500
C2030       C  0.92464535  0.49994022  0.98304340    -0.29600
H2031       H  0.00769957  0.50585311  0.99443464     0.14600
H2032       H  0.89365027  0.48874077  0.97568190     0.15100
C2033       C  0.74485424  0.37340397  0.98019949    -0.14500
C2034       C  0.79749116  0.36721586  0.98057725    -0.29600
H2035       H  0.71184304  0.36240246  0.97817813     0.14600
H2036       H  0.83000360  0.37847616  0.98135623     0.15100
C2037       C  0.00679463  0.31551746  0.62858192    -0.14500
C2038       C  0.04152404  0.31869946  0.59900863    -0.29600
H2039       H  0.96312088  0.31415333  0.62277796     0.14600
H2040       H  0.75793167  0.31499751  0.59859187     0.15100
C2041       C  0.99677061  0.25342254  0.73808271    -0.14500
C2042       C  0.94510252  0.24736030  0.74446994    -0.29600
H2043       H  0.02812614  0.24226695  0.73107498     0.14600
H2044       H  0.91313950  0.25830240  0.75121076     0.15100
C2045       C  0.77886830  0.30332720  0.85077413    -0.14500
C2046       C  0.82976389  0.30572883  0.86510433    -0.29600
H2047       H  0.74453759  0.30195354  0.87092634     0.14600
H2048       H  0.86405780  0.30850099  0.84550350     0.15100
C2049       C  0.86884430  0.43701368  0.62618553    -0.14500
C2050       C  0.83185419  0.43715174  0.59727171    -0.29600
H2051       H  0.91233264  0.43671793  0.61918434     0.14600
H2052       H  0.78841760  0.43620119  0.60420630     0.15100
C2053       C  0.88332534  0.49620597  0.73799410    -0.14500
C2054       C  0.93621379  0.50149129  0.74125150    -0.29600
H2055       H  0.85254915  0.50779753  0.73265440     0.14600
H2056       H  0.96707367  0.49002661  0.74726638     0.15100
C2057       C  0.79615061  0.43992477  0.85579613    -0.14500
C2058       C  0.74484393  0.43845700  0.86970837    -0.29600
H2059       H  0.83066482  0.43930429  0.87588379     0.14600
H2060       H  0.71052274  0.43804514  0.84942296     0.15100
C2061       C  0.80059479  0.36519598  0.73815060    -0.14500
C2062       C  0.76983870  0.38197750  0.73971694    -0.29600
H2063       H  0.84492125  0.36640471  0.73574523     0.14600
H2064       H  0.72539805  0.38067347  0.74017881     0.15100
C2065       C  0.74332154  0.81941365  0.09466872    -0.14500
C2066       C  0.70727523  0.81858762  0.12419467    -0.29600
H2067       H  0.78700402  0.82015155  0.10080164     0.14600
H2068       H  0.66361112  0.81885696  0.11778499     0.15100
C2069       C  0.69603419  0.75605119  0.23463702    -0.14500
C2070       C  0.99195087  0.74573928  0.23443048    -0.29600
H2071       H  0.72856224  0.74511253  0.22932766     0.14600
H2072       H  0.95984251  0.75694115  0.23881775     0.15100
C2073       C  0.87544929  0.93689110  0.12777872    -0.14500
C2074       C  0.83961910  0.93920120  0.09833271    -0.29600
H2075       H  0.91824258  0.93374497  0.12113782     0.14600
H2076       H  0.79626031  0.94144480  0.10426630     0.15100
C2077       C  0.90859607  0.99887283  0.23734222    -0.14500
C2078       C  0.96182918  0.00336935  0.24245223    -0.29600
H2079       H  0.87935202  0.01096989  0.23180419     0.14600
H2080       H  0.99148358  0.99143589  0.24810629     0.15100
C2081       C  0.77360414  0.88789654  0.24537136    -0.14500
C2082       C  0.80351038  0.87095003  0.24311703    -0.29600
H2083       H  0.72910057  0.88702274  0.24553000     0.14600
H2084       H  0.84793532  0.87207583  0.24138282     0.15100
C2085       C  0.87721227  0.81498527  0.60175006    -0.14500
C2086       C  0.83982718  0.81215425  0.62989435    -0.29600
H2087       H  0.92019759  0.81658588  0.60962142     0.14600
H2088       H  0.79648438  0.81165754  0.62255954     0.15100
C2089       C  0.89018964  0.75677740  0.48718547    -0.14500
C2090       C  0.94152410  0.74972020  0.48445331    -0.29600
H2091       H  0.85645107  0.74619849  0.49108573     0.14600
H2092       H  0.97577578  0.76004520  0.48050638     0.15100
C2093       C  0.82118540  0.81187670  0.37026309    -0.14500
C2094       C  0.77160012  0.80979157  0.35405061    -0.29600
H2095       H  0.85698548  0.81386131  0.35167540     0.14600
H2096       H  0.73549838  0.80901989  0.37268271     0.15100
C2097       C  0.66994057  0.93840781  0.62042524    -0.14500
C2098       C  0.72124455  0.94002722  0.60610314    -0.29600
H2099       H  0.63504276  0.93834221  0.60064174     0.14600
H2100       H  0.75584451  0.94150849  0.62595064     0.15100
C2101       C  0.95706773  0.00352647  0.48535024    -0.14500
C2102       C  0.01043867  0.99953338  0.49113458    -0.29600
H2103       H  0.92869649  0.99123572  0.47915612     0.14600
H2104       H  0.71018903  0.01294667  0.49767237     0.15100
C2105       C  0.82039493  0.94934582  0.35804283    -0.14500
C2106       C  0.77047103  0.94915748  0.37428184    -0.29600
H2107       H  0.85658158  0.94887930  0.37660434     0.14600
H2108       H  0.73434097  0.94800487  0.35577472     0.15100
C2109       C  0.81796617  0.88911947  0.48768306    -0.14500
C2110       C  0.78759632  0.87222160  0.48720991    -0.29600
H2111       H  0.86243326  0.88809641  0.48838043     0.14600
H2112       H  0.74314155  0.87348493  0.48778035     0.15100
loop_ 
_geom_bond_atom_site_label_1 
_geom_bond_atom_site_label_2 
_geom_bond_distance 
_geom_bond_site_symmetry_2 
_ccdc_geom_bond_type 
O1            V9   1.896       .  S
O1           C11   1.262       .  A
O2            V9   1.890       .  S
O2           C12   1.259       .  A
O3            V9   1.918       .  S
O3           C13   1.269       .  A
O4            V9   1.921       .  S
O4           C14   1.270       .  A
O5           V10   1.881       .  S
O5           C14   1.258       .  A
O6           V10   1.882       .  S
O6           C13   1.258       .  A
O7           V10   1.908       .  S
O7           C12   1.269       .  A
O8           V10   1.906       .  S
O8           C11   1.267       .  A
V9           V10   2.089       .  T
C11        C2102   1.475       .  S
C12         C701   1.475       .  S
C13         C698   1.468       .  S
C14         C690   1.471       .  S
O15          V23   1.878       .  S
O15          C25   1.256       .  A
O16          V23   1.874       .  S
O16          C26   1.256       .  A
O17          V23   1.920       .  S
O17          C27   1.271       .  A
O18          V23   1.918       .  S
O18          C28   1.270       .  A
O19          V24   1.883       .  S
O19          C28   1.258       .  A
O20          V24   1.881       .  S
O20          C27   1.257       .  A
O21          V24   1.914       .  S
O21          C26   1.269       .  A
O22          V24   1.919       .  S
O22          C25   1.271       .  A
V23          V24   2.089       .  T
C25         C702   1.470       .  S
C26         C681   1.463       .  S
C27         C677   1.473       .  S
C28         C685   1.473       .  S
O29          V37   1.901       .  S
O29          C39   1.263       .  A
O30          V37   1.899       .  S
O30          C40   1.264       .  A
O31          V37   1.898       .  S
O31          C41   1.264       .  A
O32          V37   1.906       .  S
O32          C42   1.268       .  A
O33          V38   1.896       .  S
O33          C42   1.261       .  A
O34          V38   1.892       .  S
O34          C41   1.263       .  A
O35          V38   1.901       .  S
O35          C40   1.264       .  A
O36          V38   1.900       .  S
O36          C39   1.266       .  A
V37          V38   2.087       .  T
C39         C697   1.478       .  S
C40         C665   1.472       .  S
C41         C669   1.466       .  S
C42         C673   1.477       .  S
O43          V51   1.892       .  S
O43          C53   1.261       .  A
O44          V51   1.889       .  S
O44          C54   1.260       .  A
O45          V51   1.908       .  S
O45          C55   1.269       .  A
O46          V51   1.912       .  S
O46          C56   1.267       .  A
O47          V52   1.890       .  S
O47          C56   1.263       .  A
O48          V52   1.894       .  S
O48          C55   1.260       .  A
O49          V52   1.913       .  S
O49          C54   1.269       .  A
O50          V52   1.910       .  S
O50          C53   1.268       .  A
V51          V52   2.088       .  T
C53         C661   1.475       .  S
C54         C674   1.475       .  S
C55         C686   1.476       .  S
C56         C658   1.479       .  S
O57          V65   1.881       .  S
O57          C67   1.258       .  A
O58          V65   1.882       .  S
O58          C68   1.257       .  A
O59          V65   1.915       .  S
O59          C69   1.269       .  A
O60          V65   1.916       .  S
O60          C70   1.270       .  A
O61          V66   1.887       .  S
O61          C70   1.258       .  A
O62          V66   1.887       .  S
O62          C69   1.259       .  A
O63          V66   1.916       .  S
O63          C68   1.271       .  A
O64          V66   1.911       .  S
O64          C67   1.268       .  A
V65          V66   2.089       .  T
C67         C645   1.466       .  S
C68         C654   1.472       .  S
C69         C649   1.472       .  S
C70         C641   1.474       .  S
O71          V79   1.881       .  S
O71        C1489   1.259       .  A
O72          V79   1.882       .  S
O72          C82   1.257       .  A
O73          V79   1.913       .  S
O73          C83   1.268       .  A
O74          V79   1.914       .  S
O74        C1492   1.270       .  A
O75          V80   1.893       .  S
O75          C84   1.260       .  A
O76        V1488   1.882       .  S
O76          C83   1.258       .  A
O77        V1488   1.916       .  S
O77          C82   1.271       .  A
O78          V80   1.904       .  S
O78          C81   1.267       .  A
V79        V1488   2.089       .  T
V80         O780   1.894       .  S
V80         O781   1.912       .  S
V80         V783   2.089       .  T
C81         O775   1.261       .  A
C81         C633   1.470       .  S
C82         C653   1.472       .  S
C83         C637   1.466       .  S
C84         O778   1.268       .  A
C84         C629   1.473       .  S
O85          V93   1.887       .  S
O85          C95   1.259       .  A
O86          V93   1.883       .  S
O86        C1504   1.259   1_455  A
O87          V93   1.909   1_554  S
O87          C97   1.268       .  A
O88          V93   1.908       .  S
O88          C98   1.268       .  A
O89          V94   1.895       .  S
O89         C802   1.261       .  A
O90          V94   1.894   1_554  S
O90         C801   1.261       .  A
O91          V94   1.903       .  S
O91          C96   1.268       .  A
O92        V1502   1.922   1_455  S
O92          C95   1.271       .  A
V93        V1502   2.088   1_455  T
V94         O796   1.914       .  S
V94         V797   2.088       .  T
C95         C625   1.479       .  S
C96         O790   1.260       .  A
C96         C621   1.473       .  S
C97        O1498   1.260   1_455  A
C97         C617   1.473   1_455  S
C98        O1497   1.261       .  A
C98         C650   1.476       .  S
O99         V107   1.895       .  S
O99         C109   1.262       .  A
O100        V107   1.896       .  S
O100        C110   1.261       .  A
O101        V107   1.899       .  S
O101        C111   1.267       .  A
O102        V107   1.903   1_554  S
O102        C112   1.265       .  A
O103        V108   1.895   1_554  S
O103        C112   1.263       .  A
O104        V108   1.896       .  S
O104        C111   1.261       .  A
O105        V108   1.914       .  S
O105        C110   1.270       .  A
O106        V108   1.910       .  S
O106        C109   1.267       .  A
V107        V108   2.088       .  T
C109        C613   1.476       .  S
C110        C626   1.482       .  S
C111        C638   1.472       .  S
C112        C609   1.472       .  S
O113        V121   1.892       .  S
O113        C123   1.261       .  A
O114        V121   1.889       .  S
O114        C124   1.260       .  A
O115        V121   1.906       .  S
O115        C125   1.267       .  A
O116        V121   1.899       .  S
O116        C126   1.264       .  A
O117        V122   1.896       .  S
O117        C126   1.263       .  A
O118        V122   1.894       .  S
O118        C125   1.261       .  A
O119        V122   1.910       .  S
O119        C124   1.267       .  A
O120        V122   1.909       .  S
O120        C123   1.268       .  A
V121        V122   2.089       .  T
C123        C601   1.473       .  S
C124        C593   1.471       .  S
C125        C605   1.474       .  S
C126        C598   1.470       .  S
O127        V135   1.901       .  S
O127        C137   1.263       .  A
O128        V135   1.893       .  S
O128        C138   1.261       .  A
O129        V135   1.910       .  S
O129        C139   1.268       .  A
O130        V135   1.910       .  S
O130        C140   1.266       .  A
O131        V136   1.894       .  S
O131        C140   1.262       .  A
O132        V136   1.895       .  S
O132        C139   1.261       .  A
O133        V136   1.907       .  S
O133        C138   1.267       .  A
O134        V136   1.903       .  S
O134        C137   1.266       .  A
V135        V136   2.088       .  T
C137        C693   1.477       .  S
C138        C606   1.474       .  S
C139        C585   1.476       .  S
C140        C589   1.473       .  S
O141        V149   1.903       .  S
O141        C151   1.266       .  A
O142        V149   1.904       .  S
O142        C152   1.264       .  A
O143        V149   1.895       .  S
O143        C153   1.264       .  A
O144        V149   1.896       .  S
O144        C154   1.264       .  A
O145        V150   1.908       .  S
O145        C154   1.265       .  A
O146        V150   1.907       .  S
O146        C153   1.265       .  A
O147        V150   1.894       .  S
O147        C152   1.265       .  A
O148        V150   1.891       .  S
O148        C151   1.260       .  A
V149        V150   2.088       .  T
C151        C577   1.469       .  S
C152        C582   1.475       .  S
C153        C573   1.476       .  S
C154        C590   1.478       .  S
O155        V163   1.908       .  S
O155        C165   1.267       .  A
O156        V163   1.900       .  S
O156        C166   1.266       .  A
O157        V163   1.890       .  S
O157        C167   1.263       .  A
O158        V163   1.894       .  S
O158        C168   1.261       .  A
O159        V164   1.907       .  S
O159        C168   1.267       .  A
O160        V164   1.909       .  S
O160        C167   1.266       .  A
O161        V164   1.895       .  S
O161        C166   1.261       .  A
O162        V164   1.890       .  S
O162        C165   1.261       .  A
V163        V164   2.089       .  T
C165        C581   1.470       .  S
C166        C634   1.472       .  S
C167        C569   1.476       .  S
C168        C602   1.474       .  S
O169        V177   1.883       .  S
O169        C179   1.258       .  A
O170        V177   1.881       .  S
O170        C180   1.257       .  A
O171        V177   1.920       .  S
O171        C181   1.270       .  A
O172        V177   1.915   1_554  S
O172        C182   1.270       .  A
O173        V178   1.882   1_554  S
O173        C182   1.257       .  A
O174        V178   1.876       .  S
O174        C181   1.257       .  A
O175        V178   1.917       .  S
O175        C180   1.270       .  A
O176        V178   1.912       .  S
O176        C179   1.269       .  A
V177        V178   2.089       .  T
C179        C622   1.469       .  S
C180        C565   1.471       .  S
C181        C558   1.468       .  S
C182        C561   1.471       .  S
O183        V191   1.896   1_554  S
O183        C193   1.261       .  A
O184        V191   1.895       .  S
O184        C194   1.263       .  A
O185        V191   1.909       .  S
O185        C195   1.269       .  A
O186        V191   1.905       .  S
O186        C196   1.266       .  A
O187        V192   1.883       .  S
O187        C196   1.260       .  A
O188        V192   1.890       .  S
O188        C195   1.259       .  A
O189        V192   1.905       .  S
O189        C194   1.265       .  A
O190        V192   1.901   1_554  S
O190        C193   1.267       .  A
V191        V192   2.088       .  T
C193        C553   1.474       .  S
C194        C545   1.473       .  S
C195        C566   1.474       .  S
C196        C549   1.463       .  S
O197        V205   1.886       .  S
O197        C207   1.258       .  A
O198        V205   1.882       .  S
O198        C208   1.258       .  A
O199        V205   1.915       .  S
O199        C209   1.270       .  A
O200        V205   1.919       .  S
O200        C210   1.270       .  A
O201        V206   1.878       .  S
O201        C210   1.257       .  A
O202        V206   1.883       .  S
O202        C209   1.257       .  A
O203        V206   1.916       .  S
O203        C208   1.270       .  A
O204        V206   1.920       .  S
O204        C207   1.271       .  A
V205        V206   2.088       .  T
C207        C542   1.477       .  S
C208        C538   1.471       .  S
C209        C562   1.472       .  S
C210        C534   1.470       .  S
O211        V219   1.893       .  S
O211        C221   1.261       .  A
O212        V219   1.890       .  S
O212        C222   1.259       .  A
O213        V219   1.916       .  S
O213        C223   1.270       .  A
O214        V219   1.914       .  S
O214        C224   1.269       .  A
O215        V220   1.882       .  S
O215        C224   1.258       .  A
O216        V220   1.884       .  S
O216        C223   1.258       .  A
O217        V220   1.917       .  S
O217        C222   1.271       .  A
O218        V220   1.911       .  S
O218        C221   1.269       .  A
V219        V220   2.088       .  T
C221        C662   1.477       .  S
C222        C541   1.479       .  S
C223        C530   1.472       .  S
C224        C554   1.467       .  S
O225        V233   1.896       .  S
O225        C235   1.261       .  A
O226        V233   1.893       .  S
O226        C940   1.263       .  A
O227        V233   1.903       .  S
O227        C941   1.264       .  A
O228        V233   1.900       .  S
O228        C238   1.266       .  A
O229        V234   1.901   1_655  S
O229       C1646   1.266       .  A
O230        V234   1.906       .  S
O230        C237   1.264       .  A
O231        V234   1.894       .  S
O231        C236   1.261       .  A
O232        V234   1.899   1_655  S
O232       C1643   1.266       .  A
V233        V938   2.088       .  T
V234       V1641   2.088   1_455  T
C235        O936   1.269       .  A
C235        C525   1.479       .  S
C236       O1634   1.266   1_455  A
C236        C578   1.470       .  S
C237       O1635   1.266   1_455  A
C237        C689   1.479       .  S
C238        O933   1.262       .  A
C238        C522   1.472       .  S
O239        V247   1.890       .  S
O239        C249   1.261       .  A
O240        V247   1.886       .  S
O240        C250   1.259       .  A
O241        V247   1.910       .  S
O241        C251   1.267       .  A
O242        V247   1.909       .  S
O242        C252   1.269       .  A
O243        V248   1.894       .  S
O243        C252   1.260       .  A
O244        V248   1.895       .  S
O244        C251   1.262       .  A
O245        V248   1.918       .  S
O245        C250   1.270       .  A
O246        V248   1.913       .  S
O246        C249   1.268       .  A
V247        V248   2.088       .  T
C249        C513   1.474       .  S
C250        C526   1.476       .  S
C251        C517   1.475       .  S
C252        C678   1.475       .  S
O253        V261   1.900       .  S
O253        C263   1.263       .  A
O254        V261   1.896       .  S
O254        C264   1.261       .  A
O255        V261   1.907       .  S
O255        C265   1.267       .  A
O256        V261   1.910   1_554  S
O256        C266   1.266       .  A
O257        V262   1.890   1_554  S
O257        C266   1.262       .  A
O258        V262   1.889       .  S
O258        C265   1.260       .  A
O259        V262   1.911       .  S
O259        C264   1.269       .  A
O260        V262   1.908       .  S
O260        C263   1.267       .  A
V261        V262   2.088       .  T
C263        C505   1.479       .  S
C264        C509   1.479       .  S
C265        C521   1.468       .  S
C266        C666   1.475       .  S
O267        V275   1.908       .  S
O267        C277   1.265   1_455  A
O268        V275   1.907   1_554  S
O268        C278   1.265       .  A
O269        V275   1.883       .  S
O269        C279   1.263       .  A
O270        V275   1.894       .  S
O270        C280   1.262   1_455  A
O271        V276   1.893       .  S
O271        C984   1.261       .  A
O272       V1684   1.906       .  S
O272        C279   1.264   1_655  A
O273       V1684   1.896   1_554  S
O273        C278   1.263   1_655  A
O274        V276   1.904       .  S
O274        C981   1.266       .  A
V275       V1684   2.088   1_455  T
V276        O976   1.893       .  S
V276        O977   1.904   1_556  S
V276        V979   2.088       .  T
C277       O1682   1.265       .  A
C277       C1926   1.480       .  S
C278        C657   1.473       .  S
C279        C550   1.473       .  S
C280       O1679   1.266       .  A
C280       C1918   1.471       .  S
O281        V289   1.902       .  S
O281        C291   1.265       .  A
O282        V289   1.904       .  S
O282        C292   1.263       .  A
O283        V289   1.903       .  S
O283        C293   1.264       .  A
O284        V289   1.893       .  S
O284        C294   1.265       .  A
O285        V290   1.900       .  S
O285        C294   1.262       .  A
O286       V1698   1.893       .  S
O286       C1701   1.261       .  A
O287        V290   1.894       .  S
O287        C292   1.266       .  A
O288        V290   1.896       .  S
O288        C291   1.262       .  A
V289        V290   2.088       .  T
V290        O990   1.896       .  S
C291        C497   1.471       .  S
C292        C557   1.477       .  S
C293        O990   1.264       .  A
C293       C1205   1.474       .  S
C294        C646   1.473       .  S
O295        V303   1.896       .  S
O295        C305   1.262       .  A
O296        V303   1.893       .  S
O296        C306   1.262       .  A
O297        V303   1.905       .  S
O297        C307   1.267       .  A
O298        V303   1.901       .  S
O298        C308   1.266       .  A
O299        V304   1.902       .  S
O299        C308   1.263       .  A
O300        V304   1.898   1_655  S
O300        C307   1.262   1_655  A
O301        V304   1.907       .  S
O301        C306   1.266       .  A
O302        V304   1.906       .  S
O302        C305   1.267       .  A
V303        V304   2.088       .  T
C305        C493   1.475       .  S
C306        C546   1.474       .  S
C307        C502   1.476       .  S
C308        C514   1.479       .  S
O309        V317   1.902       .  S
O309        C319   1.262       .  A
O310        V317   1.895       .  S
O310        C320   1.264       .  A
O311        V317   1.899       .  S
O311        C321   1.267       .  A
O312        V317   1.899       .  S
O312        C322   1.264       .  A
O313        V318   1.898       .  S
O313        C322   1.264       .  A
O314        V318   1.900       .  S
O314        C321   1.262       .  A
O315        V318   1.900       .  S
O315        C320   1.264       .  A
O316        V318   1.888       .  S
O316        C319   1.265       .  A
V317        V318   2.088       .  T
C319        C485   1.474       .  S
C320        C489   1.471       .  S
C321        C533   1.476       .  S
C322        C498   1.472       .  S
O323        V331   1.894       .  S
O323       C1037   1.262       .  A
O324        V331   1.894       .  S
O324        C334   1.260       .  A
O325        V331   1.903       .  S
O325       C1039   1.264       .  A
O326        V331   1.892       .  S
O326        C336   1.266       .  A
O327        V332   1.900   1_655  S
O327       C1744   1.262       .  A
O328        V332   1.894       .  S
O328        C335   1.263   1_455  A
O329        V332   1.910       .  S
O329       C1742   1.268   1_455  A
O330        V332   1.908       .  S
O330        C333   1.267   1_455  A
V331       V1036   2.088       .  T
V332       V1739   2.088   1_455  T
C333       O1731   1.261       .  A
C333        C494   1.475       .  S
C334       O1033   1.269       .  A
C334        C529   1.475       .  S
C335       O1733   1.264       .  A
C335        C490   1.471       .  S
C336       O1031   1.261       .  A
C336        C682   1.472       .  S
O337        V345   1.890       .  S
O337        C347   1.260       .  A
O338        V345   1.888       .  S
O338        C348   1.259       .  A
O339        V345   1.915       .  S
O339        C349   1.269       .  A
O340        V345   1.921       .  S
O340        C350   1.271       .  A
O341        V346   1.876       .  S
O341        C350   1.256       .  A
O342        V346   1.873       .  S
O342        C349   1.256       .  A
O343        V346   1.915       .  S
O343        C348   1.270       .  A
O344        V346   1.914       .  S
O344        C347   1.269       .  A
V345        V346   2.089       .  T
C347        C477   1.475       .  S
C348        C642   1.475       .  S
C349        C486   1.463       .  S
C350        C482   1.470       .  S
O351        V359   1.912       .  S
O351       C1769   1.270   1_455  A
O352        V359   1.907       .  S
O352        C362   1.266       .  A
O353        V359   1.883       .  S
O353       C1771   1.259   1_455  A
O354        V359   1.887       .  S
O354        C364   1.258       .  A
O355        V360   1.912       .  S
O355       C1068   1.269       .  A
O356        V360   1.912       .  S
O356        C363   1.268       .  A
O357        V360   1.891       .  S
O357       C1066   1.263       .  A
O358        V360   1.893       .  S
O358        C361   1.260       .  A
V359       V1768   2.088   1_455  T
V360       V1063   2.089       .  T
C361       O1055   1.269       .  A
C361        C481   1.476       .  S
C362       O1765   1.262   1_455  A
C362        C597   1.473       .  S
C363       O1057   1.259       .  A
C363        C473   1.468       .  S
C364       O1763   1.269   1_455  A
C364       C2038   1.472       .  S
O365        V373   1.889       .  S
O365       C1079   1.260       .  A
O366        V373   1.885       .  S
O366        C376   1.259       .  A
O367        V373   1.911       .  S
O367        C377   1.269       .  A
O368        V373   1.912       .  S
O368       C1082   1.269       .  A
O369        V374   1.890       .  S
O369        C378   1.259       .  A
O370        V374   1.891       .  S
O370       C1785   1.260   1_455  A
O371        V374   1.915       .  S
O371       C1784   1.269   1_455  A
O372        V374   1.904       .  S
O372        C375   1.268       .  A
V373       V1078   2.088       .  T
V374       V1781   2.088   1_455  T
C375       O1773   1.260   1_455  A
C375        C537   1.475       .  S
C376       O1075   1.270       .  A
C376        C469   1.475       .  S
C377       O1074   1.260       .  A
C377        C478   1.476       .  S
C378       O1776   1.269   1_455  A
C378        C618   1.472       .  S
O379        V387   1.893       .  S
O379        C389   1.262       .  A
O380       V1795   1.903       .  S
O380       C1798   1.263       .  A
O381        V387   1.900       .  S
O381        C391   1.266       .  A
O382        V387   1.903       .  S
O382        C392   1.265       .  A
O383        V388   1.896       .  S
O383        C392   1.263       .  A
O384        V388   1.897       .  S
O384        C391   1.262       .  A
O385        V388   1.909       .  S
O385        C390   1.269       .  A
O386        V388   1.904       .  S
O386        C389   1.266       .  A
V387       O1084   1.896       .  S
V387        V388   2.088       .  T
C389        C465   1.471       .  S
C390       O1084   1.261       .  A
C390        C470   1.479       .  S
C391        C474   1.473       .  S
C392        C610   1.472       .  S
O393        V401   1.903       .  S
O393        C403   1.264       .  A
O394        V401   1.897       .  S
O394        C404   1.263       .  A
O395        V401   1.903       .  S
O395        C405   1.265       .  A
O396        V401   1.900   1_554  S
O396        C406   1.265       .  A
O397        V402   1.904   1_554  S
O397        C406   1.264       .  A
O398        V402   1.899       .  S
O398        C405   1.263       .  A
O399        V402   1.909       .  S
O399        C404   1.267       .  A
O400        V402   1.904       .  S
O400        C403   1.266       .  A
V401        V402   2.088       .  T
C403        C506   1.480       .  S
C404        C462   1.477       .  S
C405        C574   1.473       .  S
C406        C458   1.477       .  S
O407        V415   1.903   1_455  S
O407        C417   1.266       .  A
O408       V1119   1.897       .  S
O408       C1122   1.265       .  A
O409       V1119   1.904       .  S
O409       C1123   1.265       .  A
O410        V415   1.907   1_554  S
O410        C420   1.267   1_655  A
O411        V416   1.893   1_554  S
O411        C420   1.261       .  A
O412        V416   1.894       .  S
O412        C419   1.262   1_455  A
O413        V416   1.905       .  S
O413        C418   1.266   1_455  A
O414        V416   1.903       .  S
O414        C417   1.264       .  A
V415       O1816   1.900       .  S
V415       O1817   1.907       .  S
V415        V416   2.088   1_655  T
C417        C461   1.479       .  S
C418       O1816   1.264       .  A
C418       C2022   1.477       .  S
C419       O1817   1.266       .  A
C419       C1978   1.472       .  S
C420        C453   1.472       .  S
O421        V429   1.899       .  S
O421       C1135   1.263       .  A
O422        V429   1.897       .  S
O422        C432   1.262       .  A
O423        V429   1.909       .  S
O423       C1137   1.268       .  A
O424        V429   1.903       .  S
O424        C434   1.264       .  A
O425        V430   1.906       .  S
O425       C1842   1.264   1_455  A
O426        V430   1.899       .  S
O426        C433   1.263       .  A
O427        V430   1.907       .  S
O427       C1840   1.266   1_455  A
O428        V430   1.908       .  S
O428        C431   1.266       .  A
V429       V1134   2.088       .  T
V430       V1837   2.088   1_455  T
C431       O1829   1.262   1_455  A
C431        C457   1.474       .  S
C432       O1131   1.268       .  A
C432        C586   1.477       .  S
C433       O1831   1.265   1_455  A
C433        C450   1.473       .  S
C434       O1129   1.262       .  A
C434        C670   1.469       .  S
O435        V443   1.904       .  S
O435        C445   1.264       .  A
O436        V443   1.897       .  S
O436        C446   1.263       .  A
O437        V443   1.898       .  S
O437        C447   1.266       .  A
O438        V443   1.901       .  S
O438        C448   1.263       .  A
O439        V444   1.900       .  S
O439        C448   1.266       .  A
O440        V444   1.901       .  S
O440        C447   1.263       .  A
O441        V444   1.900       .  S
O441        C446   1.265       .  A
O442        V444   1.893       .  S
O442        C445   1.264       .  A
V443        V444   2.088       .  T
C445        C466   1.475       .  S
C446        C449   1.472       .  S
C447        C594   1.474       .  S
C448        C454   1.475       .  S
C449        C450   1.342       .  D
C449       H1859   1.087   1_455  S
C450        H452   1.087       .  S
H451       C1153   1.087       .  S
C453        C454   1.341       .  D
C453        H455   1.087       .  S
C454        H456   1.087   1_455  S
C457        C458   1.343       .  D
C457        H459   1.087       .  S
C458        H460   1.087       .  S
C461        C462   1.344       .  D
C461        H463   1.087       .  S
C462        H464   1.087       .  S
C465        C466   1.343       .  D
C465        H467   1.087       .  S
C466        H468   1.087       .  S
C469        C470   1.339       .  D
C469        H471   1.087       .  S
C470        H472   1.087       .  S
C473        C474   1.338       .  D
C473       H1179   1.087       .  S
C474        H476   1.087       .  S
H475       C1881   1.087   1_455  S
C477        C478   1.339       .  D
C477        H479   1.087       .  S
C478        H480   1.087       .  S
C481        C482   1.336       .  D
C481        H483   1.087       .  S
C482        H484   1.087       .  S
C485        C486   1.338       .  D
C485        H487   1.086       .  S
C486        H488   1.088       .  S
C489        C490   1.343   1_455  D
C489        H491   1.087       .  S
C490        H492   1.087       .  S
C493        C494   1.341   1_455  D
C493        H495   1.087       .  S
C494       H1904   1.087       .  S
H496       C1198   1.087       .  S
C497       C1202   1.342       .  D
C497        H499   1.087       .  S
C498       C1905   1.344       .  D
C498       H1908   1.087   1_455  S
H500       C1202   1.087       .  S
C501       C1701   1.474       .  S
C501        C502   1.341       .  D
C501        H503   1.087       .  S
C502        H504   1.087   1_455  S
C505        C506   1.345   1_565  D
C505        H507   1.087   1_565  S
C506        H508   1.087   1_545  S
C509        C510   1.341       .  D
C509        H511   1.087       .  S
C510        C984   1.478       .  S
C510       H1216   1.087       .  S
H512       C1918   1.087   1_455  S
C513        C514   1.342       .  D
C513        H515   1.087       .  S
C514        H516   1.087       .  S
C517        C518   1.342       .  D
C517        H519   1.087       .  S
C518        C981   1.478       .  S
C518        H520   1.087       .  S
C521        C522   1.339       .  D
C521        H523   1.087       .  S
C522       H1228   1.087       .  S
H524       C1930   1.087       .  S
C525        C526   1.339       .  D
C525        H527   1.087       .  S
C526        H528   1.087       .  S
C529        C530   1.337       .  D
C529        H531   1.087       .  S
C530        H532   1.087       .  S
C533        C534   1.338       .  D
C533        H535   1.086       .  S
C534        H536   1.088       .  S
C537        C538   1.337       .  D
C537        H539   1.087       .  S
C538        H540   1.087       .  S
C541        C542   1.337       .  D
C541        H543   1.087       .  S
C542        H544   1.087       .  S
C545        C546   1.347       .  D
C545        H547   1.087       .  S
C546        H548   1.087       .  S
C549        C550   1.341       .  D
C549        H551   1.087       .  S
C550        H552   1.086       .  S
C553        C554   1.338       .  D
C553        H555   1.087       .  S
C554        H556   1.087       .  S
C557        C558   1.338       .  D
C557        H559   1.086       .  S
C558        H560   1.088       .  S
C561        C562   1.334       .  D
C561        H563   1.087       .  S
C562        H564   1.087       .  S
C565        C566   1.336       .  D
C565        H567   1.087       .  S
C566        H568   1.087       .  S
C569        C570   1.345       .  D
C569        H571   1.087       .  S
C570       C1123   1.471       .  S
C570       H1276   1.087       .  S
H572       C1978   1.087   1_455  S
C573        C574   1.344       .  D
C573        H575   1.087       .  S
C574        H576   1.087       .  S
C577        C578   1.340   1_545  D
C577        H579   1.087   1_455  S
C578        H580   1.087       .  S
C581        C582   1.342       .  D
C581        H583   1.087       .  S
C582        H584   1.086       .  S
C585        C586   1.340       .  D
C585        H587   1.087       .  S
C586        H588   1.087       .  S
C589        C590   1.344       .  D
C589        H591   1.087       .  S
C590        H592   1.087       .  S
C593        C594   1.340       .  D
C593        H595   1.087       .  S
C594        H596   1.086       .  S
C597        C598   1.346       .  D
C597        H599   1.087       .  S
C598        H600   1.087       .  S
C601        C602   1.339       .  D
C601        H603   1.087       .  S
C602        H604   1.087       .  S
C605        C606   1.340       .  D
C605        H607   1.087       .  S
C606        H608   1.087       .  S
C609        C610   1.345       .  D
C609        H611   1.087       .  S
C610        H612   1.087       .  S
C613        C614   1.344       .  D
C613        H615   1.087       .  S
C614       C1122   1.480       .  S
C614       H1320   1.086       .  S
H616       C2022   1.087       .  S
C617        C618   1.337   1_655  D
C617       H2027   1.087       .  S
C618        H620   1.087       .  S
H619       C1321   1.087       .  S
C621        C622   1.337       .  D
C621        H623   1.087       .  S
C622        H624   1.087       .  S
C625        C626   1.340       .  D
C625        H627   1.087       .  S
C626        H628   1.087       .  S
C629        C630   1.337       .  D
C629        H631   1.087       .  S
C630       C1068   1.472       .  S
C630       H1336   1.087       .  S
H632       C2038   1.087       .  S
C633        C634   1.340       .  D
C633        H635   1.087       .  S
C634        H636   1.087       .  S
C637        C638   1.337       .  D
C637        H639   1.087       .  S
C638        H640   1.087       .  S
C641        C642   1.336       .  D
C641        H643   1.087       .  S
C642        H644   1.087       .  S
C645        C646   1.339       .  D
C645        H647   1.087       .  S
C646        H648   1.086       .  S
C649        C650   1.338       .  D
C649        H651   1.087       .  S
C650        H652   1.087       .  S
C653        C654   1.334       .  D
C653        H655   1.087       .  S
C654        H656   1.087       .  S
C657        C658   1.346       .  D
C657        H659   1.087   1_455  S
C658        H660   1.086       .  S
C661       C2070   1.341   1_455  D
C661        H663   1.087       .  S
C662       C1365   1.340       .  D
C662        H664   1.087       .  S
C665        C666   1.346       .  D
C665        H667   1.087       .  S
C666        H668   1.087       .  S
C669        C670   1.344   1_565  D
C669        H671   1.087       .  S
C670        H672   1.087       .  S
C673        C674   1.340       .  D
C673        H675   1.087       .  S
C674        H676   1.087       .  S
C677        C678   1.336       .  D
C677        H679   1.088       .  S
C678        H680   1.086       .  S
C681        C682   1.337       .  D
C681        H683   1.088       .  S
C682        H684   1.086       .  S
C685        C686   1.337       .  D
C685        H687   1.087       .  S
C686        H688   1.087       .  S
C689        C690   1.340       .  D
C689        H691   1.086       .  S
C690        H692   1.087   1_455  S
C693        C694   1.344       .  D
C693        H695   1.087   1_545  S
C694        C715   1.476   1_545  S
C694       H1400   1.087       .  S
H696       C2102   1.087   1_545  S
C697        C698   1.340       .  D
C697        H699   1.087       .  S
C698        H700   1.087       .  S
C701        C702   1.335       .  D
C701        H703   1.087       .  S
C702        H704   1.087       .  S
O705        V713   1.900       .  S
O705        C715   1.263       .  A
O706        V713   1.899       .  S
O706        C716   1.261       .  A
O707        V713   1.903       .  S
O707        C717   1.267       .  A
O708        V713   1.906       .  S
O708        C718   1.266       .  A
O709        V714   1.894       .  S
O709        C718   1.262       .  A
O710        V714   1.895       .  S
O710        C717   1.261       .  A
O711        V714   1.905       .  S
O711        C716   1.269       .  A
O712        V714   1.904       .  S
O712        C715   1.266       .  A
V713        V714   2.088       .  T
C716       C1405   1.479       .  S
C717       C1402   1.472       .  S
C718       C1394   1.473       .  S
O719        V727   1.878       .  S
O719        C729   1.257       .  A
O720        V727   1.874       .  S
O720        C730   1.256       .  A
O721        V727   1.912       .  S
O721        C731   1.269       .  A
O722        V727   1.911       .  S
O722        C732   1.269       .  A
O723        V728   1.889       .  S
O723        C732   1.260       .  A
O724        V728   1.887       .  S
O724        C731   1.259       .  A
O725        V728   1.917       .  S
O725        C730   1.269       .  A
O726        V728   1.923       .  S
O726        C729   1.271       .  A
V727        V728   2.089       .  T
C729       C1406   1.473       .  S
C730       C1385   1.465       .  S
C731       C1381   1.473       .  S
C732       C1389   1.473       .  S
O733        V741   1.888       .  S
O733        C743   1.260       .  A
O734        V741   1.887       .  S
O734        C744   1.259       .  A
O735        V741   1.910       .  S
O735        C745   1.268       .  A
O736        V741   1.916       .  S
O736        C746   1.270       .  A
O737        V742   1.891       .  S
O737        C746   1.260       .  A
O738        V742   1.891       .  S
O738        C745   1.261       .  A
O739        V742   1.909       .  S
O739        C744   1.268       .  A
O740        V742   1.909       .  S
O740        C743   1.267       .  A
V741        V742   2.088       .  T
C743       C1401   1.470       .  S
C744       C1369   1.469       .  S
C745       C1373   1.474       .  S
C746       C1377   1.478       .  S
O747        V755   1.894       .  S
O747        C757   1.261       .  A
O748        V755   1.890       .  S
O748        C758   1.260       .  A
O749        V755   1.911       .  S
O749        C759   1.269       .  A
O750        V755   1.915       .  S
O750        C760   1.269       .  A
O751        V756   1.888       .  S
O751        C760   1.260       .  A
O752        V756   1.889       .  S
O752        C759   1.259       .  A
O753        V756   1.916       .  S
O753        C758   1.270       .  A
O754        V756   1.910       .  S
O754        C757   1.268       .  A
V755        V756   2.088       .  T
C757       C1365   1.477       .  S
C758       C1378   1.478       .  S
C759       C1390   1.473       .  S
C760       C1362   1.473       .  S
O761        V769   1.897       .  S
O761        C771   1.263       .  A
O762        V769   1.892       .  S
O762        C772   1.260       .  A
O763        V769   1.910       .  S
O763        C773   1.268       .  A
O764        V769   1.913       .  S
O764        C774   1.268       .  A
O765        V770   1.889       .  S
O765        C774   1.260       .  A
O766        V770   1.892       .  S
O766        C773   1.260       .  A
O767        V770   1.908       .  S
O767        C772   1.268       .  A
O768        V770   1.906       .  S
O768        C771   1.267       .  A
V769        V770   2.088       .  T
C771       C1349   1.476       .  S
C772       C1358   1.474       .  S
C773       C1353   1.474       .  S
C774       C1345   1.472       .  S
O775        V783   1.891       .  S
O776        V783   1.887       .  S
O776        C786   1.259       .  A
O777        V783   1.907       .  S
O777        C787   1.267       .  A
O778        V783   1.907       .  S
O779        V784   1.886       .  S
O779        C788   1.259       .  A
O780        C787   1.261       .  A
O781        C786   1.269       .  A
O782        V784   1.905       .  S
O782        C785   1.266       .  A
V784       O1484   1.885       .  S
V784       O1485   1.907       .  S
V784       V1487   2.089       .  T
C785       O1479   1.263       .  A
C785       C1337   1.476       .  S
C786       C1357   1.472       .  S
C787       C1341   1.472       .  S
C788       O1482   1.269       .  A
C788       C1333   1.472       .  S
O789        V797   1.892       .  S
O789        C799   1.263       .  A
O790        V797   1.893       .  S
O791        V797   1.909   1_554  S
O791        C801   1.268       .  A
O792        V797   1.908       .  S
O792        C802   1.268       .  A
O793        V798   1.897       .  S
O793       C1506   1.262       .  A
O794        V798   1.894   1_554  S
O794       C1505   1.261       .  A
O795        V798   1.903       .  S
O795        C800   1.267       .  A
O796        C799   1.267       .  A
V798       O1500   1.914       .  S
V798       V1501   2.088       .  T
C799       C1329   1.481       .  S
C800       O1494   1.261       .  A
C800       C1325   1.473       .  S
C801       C1321   1.476       .  S
C802       C1354   1.476       .  S
O803        V811   1.907       .  S
O803        C813   1.266       .  A
O804        V811   1.907       .  S
O804        C814   1.265       .  A
O805        V811   1.901       .  S
O805        C815   1.266       .  A
O806        V811   1.904   1_554  S
O806        C816   1.266       .  A
O807        V812   1.896   1_554  S
O807        C816   1.262       .  A
O808        V812   1.899       .  S
O808        C815   1.263       .  A
O809        V812   1.899       .  S
O809        C814   1.264       .  A
O810        V812   1.896       .  S
O810        C813   1.264       .  A
V811        V812   2.088       .  T
C813       C1317   1.477       .  S
C814       C1330   1.476       .  S
C815       C1342   1.474       .  S
C816       C1313   1.472       .  S
O817        V825   1.894       .  S
O817        C827   1.262       .  A
O818        V825   1.893       .  S
O818        C828   1.261       .  A
O819        V825   1.907       .  S
O819        C829   1.268       .  A
O820        V825   1.900       .  S
O820        C830   1.264       .  A
O821        V826   1.893       .  S
O821        C830   1.263       .  A
O822        V826   1.895       .  S
O822        C829   1.261       .  A
O823        V826   1.907       .  S
O823        C828   1.267       .  A
O824        V826   1.907       .  S
O824        C827   1.267       .  A
V825        V826   2.088       .  T
C827       C1305   1.473       .  S
C828       C1297   1.472       .  S
C829       C1309   1.475       .  S
C830       C1302   1.469       .  S
O831        V839   1.896       .  S
O831        C841   1.262       .  A
O832        V839   1.892       .  S
O832        C842   1.261       .  A
O833        V839   1.906       .  S
O833        C843   1.266       .  A
O834        V839   1.905       .  S
O834        C844   1.266       .  A
O835        V840   1.898       .  S
O835        C844   1.262       .  A
O836        V840   1.899       .  S
O836        C843   1.264       .  A
O837        V840   1.909       .  S
O837        C842   1.268       .  A
O838        V840   1.903       .  S
O838        C841   1.266       .  A
V839        V840   2.088       .  T
C841       C1397   1.474       .  S
C842       C1310   1.475       .  S
C843       C1289   1.476       .  S
C844       C1293   1.474       .  S
O845        V853   1.895       .  S
O845        C855   1.263       .  A
O846        V853   1.896       .  S
O846        C856   1.261       .  A
O847        V853   1.908       .  S
O847        C857   1.268       .  A
O848        V853   1.908       .  S
O848        C858   1.267       .  A
O849        V854   1.895       .  S
O849        C858   1.262       .  A
O850        V854   1.894       .  S
O850        C857   1.261       .  A
O851        V854   1.907       .  S
O851        C856   1.267       .  A
O852        V854   1.900       .  S
O852        C855   1.264       .  A
V853        V854   2.088       .  T
C855       C1281   1.470       .  S
C856       C1286   1.476       .  S
C857       C1277   1.475       .  S
C858       C1294   1.474       .  S
O859        V867   1.909       .  S
O859        C869   1.268       .  A
O860        V867   1.904       .  S
O860        C870   1.266       .  A
O861        V867   1.893       .  S
O861        C871   1.263       .  A
O862        V867   1.896       .  S
O862        C872   1.261       .  A
O863        V868   1.905       .  S
O863        C872   1.267       .  A
O864        V868   1.908       .  S
O864        C871   1.266       .  A
O865        V868   1.899       .  S
O865        C870   1.263       .  A
O866        V868   1.893       .  S
O866        C869   1.261       .  A
V867        V868   2.088       .  T
C869       C1285   1.475       .  S
C870       C1338   1.477       .  S
C871       C1273   1.476       .  S
C872       C1306   1.473       .  S
O873        V881   1.888       .  S
O873        C883   1.259       .  A
O874        V881   1.884       .  S
O874        C884   1.259       .  A
O875        V881   1.907       .  S
O875        C885   1.267       .  A
O876        V881   1.903   1_554  S
O876        C886   1.267       .  A
O877        V882   1.890   1_554  S
O877        C886   1.260       .  A
O878        V882   1.884       .  S
O878        C885   1.259       .  A
O879        V882   1.914       .  S
O879        C884   1.269       .  A
O880        V882   1.909       .  S
O880        C883   1.268       .  A
V881        V882   2.089       .  T
C883       C1326   1.471       .  S
C884       C1269   1.471       .  S
C885       C1262   1.465       .  S
C886       C1265   1.470       .  S
O887        V895   1.891   1_554  S
O887        C897   1.260       .  A
O888        V895   1.889       .  S
O888        C898   1.262       .  A
O889        V895   1.902       .  S
O889        C899   1.267       .  A
O890        V895   1.900       .  S
O890        C900   1.266       .  A
O891        V896   1.900       .  S
O891        C900   1.263       .  A
O892        V896   1.897       .  S
O892        C899   1.261       .  A
O893        V896   1.911       .  S
O893        C898   1.267       .  A
O894        V896   1.909   1_554  S
O894        C897   1.268       .  A
V895        V896   2.088       .  T
C897       C1257   1.473       .  S
C898       C1249   1.477       .  S
C899       C1270   1.475       .  S
C900       C1253   1.475       .  S
O901        V909   1.898       .  S
O901        C911   1.263       .  A
O902        V909   1.897       .  S
O902        C912   1.262       .  A
O903        V909   1.907       .  S
O903        C913   1.268       .  A
O904        V909   1.910       .  S
O904        C914   1.268       .  A
O905        V910   1.884       .  S
O905        C914   1.259       .  A
O906        V910   1.886       .  S
O906        C913   1.259       .  A
O907        V910   1.905       .  S
O907        C912   1.267       .  A
O908        V910   1.909       .  S
O908        C911   1.267       .  A
V909        V910   2.088       .  T
C911       C1246   1.479       .  S
C912       C1242   1.477       .  S
C913       C1266   1.469       .  S
C914       C1238   1.468       .  S
O915        V923   1.897       .  S
O915        C925   1.261       .  A
O916        V923   1.896       .  S
O916        C926   1.263       .  A
O917        V923   1.909       .  S
O917        C927   1.268       .  A
O918        V923   1.907       .  S
O918        C928   1.268       .  A
O919        V924   1.892       .  S
O919        C928   1.260       .  A
O920        V924   1.890       .  S
O920        C927   1.260       .  A
O921        V924   1.911       .  S
O921        C926   1.267       .  A
O922        V924   1.904       .  S
O922        C925   1.268       .  A
V923        V924   2.088       .  T
C925       C1366   1.477       .  S
C926       C1245   1.480       .  S
C927       C1234   1.473       .  S
C928       C1258   1.474       .  S
O929        V937   1.888       .  S
O929        C939   1.259       .  A
O930        V937   1.887       .  S
O930       C1644   1.260       .  A
O931        V937   1.906       .  S
O931       C1645   1.266       .  A
O932        V937   1.903       .  S
O932        C942   1.267       .  A
O933        V938   1.897       .  S
O934        V938   1.896       .  S
O934        C941   1.263       .  A
O935        V938   1.901       .  S
O935        C940   1.264       .  A
O936        V938   1.909       .  S
V937       V1642   2.089       .  T
C939       O1640   1.268       .  A
C939       C1229   1.471       .  S
C940       C1282   1.471       .  S
C941       C1393   1.471       .  S
C942       O1637   1.261       .  A
C942       C1226   1.471       .  S
O943        V951   1.888       .  S
O943        C953   1.260       .  A
O944        V951   1.883       .  S
O944        C954   1.258       .  A
O945        V951   1.909       .  S
O945        C955   1.268       .  A
O946        V951   1.910       .  S
O946        C956   1.269       .  A
O947        V952   1.891       .  S
O947        C956   1.259       .  A
O948        V952   1.893       .  S
O948        C955   1.261       .  A
O949        V952   1.911       .  S
O949        C954   1.269       .  A
O950        V952   1.908       .  S
O950        C953   1.267       .  A
V951        V952   2.089       .  T
C953       C1217   1.470       .  S
C954       C1230   1.469       .  S
C955       C1221   1.474       .  S
C956       C1382   1.473       .  S
O957        V965   1.895       .  S
O957        C967   1.262       .  A
O958        V965   1.897       .  S
O958        C968   1.262       .  A
O959        V965   1.905       .  S
O959        C969   1.267       .  A
O960        V965   1.906   1_554  S
O960        C970   1.268       .  A
O961        V966   1.889   1_554  S
O961        C970   1.259       .  A
O962        V966   1.891       .  S
O962        C969   1.260       .  A
O963        V966   1.918       .  S
O963        C968   1.270       .  A
O964        V966   1.913       .  S
O964        C967   1.268       .  A
V965        V966   2.088       .  T
C967       C1209   1.479       .  S
C968       C1213   1.485       .  S
C969       C1225   1.471       .  S
C970       C1370   1.471       .  S
O971        V979   1.902       .  S
O971        C981   1.263       .  A
O972        V979   1.899   1_554  S
O972        C982   1.262       .  A
O973        V979   1.906       .  S
O973        C983   1.267       .  A
O974        V979   1.913       .  S
O974        C984   1.269       .  A
O975        V980   1.899       .  S
O975       C1688   1.263       .  A
O976        C983   1.261       .  A
O977        C982   1.267       .  A
O978        V980   1.905       .  S
O978       C1685   1.267       .  A
V980       O1680   1.893       .  S
V980       O1681   1.905   1_556  S
V980       V1683   2.088       .  T
C982       C1361   1.477       .  S
C983       C1254   1.473       .  S
O985        V993   1.898       .  S
O985        C995   1.265       .  A
O986        V993   1.898       .  S
O986        C996   1.261       .  A
O987        V993   1.908       .  S
O987        C997   1.267       .  A
O988        V993   1.903       .  S
O988        C998   1.266       .  A
O989        V994   1.901       .  S
O989        C998   1.263       .  A
O991        V994   1.893       .  S
O991        C996   1.265       .  A
O992        V994   1.895       .  S
O992        C995   1.262       .  A
V993        V994   2.088       .  T
V994       O1694   1.900       .  S
C995       C1201   1.468       .  S
C996       C1261   1.470       .  S
C997       O1694   1.263       .  A
C997       C1909   1.479       .  S
C998       C1350   1.478       .  S
O999       V1007   1.904       .  S
O999       C1009   1.264       .  A
O1000      V1007   1.901       .  S
O1000      C1010   1.264       .  A
O1001      V1007   1.902       .  S
O1001      C1011   1.264       .  A
O1002      V1007   1.895       .  S
O1002      C1012   1.265       .  A
O1003      V1008   1.901       .  S
O1003      C1012   1.263       .  A
O1004      V1008   1.898       .  S
O1004      C1011   1.264       .  A
O1005      V1008   1.899       .  S
O1005      C1010   1.264       .  A
O1006      V1008   1.899       .  S
O1006      C1009   1.266       .  A
V1007      V1008   2.088       .  T
C1009      C1197   1.478       .  S
C1010      C1250   1.472       .  S
C1011      C1206   1.473       .  S
C1012      C1218   1.475       .  S
O1013      V1021   1.903       .  S
O1013      C1023   1.264       .  A
O1014      V1021   1.898       .  S
O1014      C1024   1.264       .  A
O1015      V1021   1.897       .  S
O1015      C1025   1.266       .  A
O1016      V1021   1.899       .  S
O1016      C1026   1.263       .  A
O1017      V1022   1.898       .  S
O1017      C1026   1.265       .  A
O1018      V1022   1.898       .  S
O1018      C1025   1.262       .  A
O1019      V1022   1.896       .  S
O1019      C1024   1.263       .  A
O1020      V1022   1.893       .  S
O1020      C1023   1.264       .  A
V1021      V1022   2.088       .  T
C1023      C1189   1.474       .  S
C1024      C1193   1.468       .  S
C1025      C1237   1.473       .  S
C1026      C1202   1.473       .  S
O1027      V1035   1.898       .  S
O1027      C1741   1.262       .  A
O1028      V1035   1.895       .  S
O1028      C1038   1.261       .  A
O1029      V1035   1.904       .  S
O1029      C1743   1.264       .  A
O1030      V1035   1.893       .  S
O1030      C1040   1.266       .  A
O1031      V1036   1.897       .  S
O1032      V1036   1.891       .  S
O1032      C1039   1.263       .  A
O1033      V1036   1.907       .  S
O1034      V1036   1.909       .  S
O1034      C1037   1.267       .  A
V1035      V1740   2.088       .  T
C1037      C1198   1.474       .  S
C1038      O1737   1.267       .  A
C1038      C1233   1.474       .  S
C1039      C1194   1.471       .  S
C1040      O1735   1.261       .  A
C1040      C1386   1.474       .  S
O1041      V1049   1.906       .  S
O1041      C1051   1.265       .  A
O1042      V1049   1.903       .  S
O1042      C1052   1.263       .  A
O1043      V1049   1.904       .  S
O1043      C1053   1.265       .  A
O1044      V1049   1.910       .  S
O1044      C1054   1.267       .  A
O1045      V1050   1.896       .  S
O1045      C1054   1.263       .  A
O1046      V1050   1.892       .  S
O1046      C1053   1.262       .  A
O1047      V1050   1.899       .  S
O1047      C1052   1.266       .  A
O1048      V1050   1.902       .  S
O1048      C1051   1.265       .  A
V1049      V1050   2.088       .  T
C1051      C1181   1.480       .  S
C1052      C1346   1.477       .  S
C1053      C1190   1.470       .  S
C1054      C1186   1.479       .  S
O1055      V1063   1.905       .  S
O1056      V1063   1.901       .  S
O1056      C1066   1.264       .  A
O1057      V1063   1.885       .  S
O1058      V1063   1.887       .  S
O1058      C1068   1.259       .  A
O1059      V1064   1.903       .  S
O1059      C1772   1.267       .  A
O1060      V1064   1.902       .  S
O1060      C1067   1.263       .  A
O1061      V1064   1.905       .  S
O1061      C1770   1.264       .  A
O1062      V1064   1.902       .  S
O1062      C1065   1.265       .  A
V1064      V1767   2.088       .  T
C1065      O1759   1.265       .  A
C1065      C1185   1.477       .  S
C1066      C1301   1.470       .  S
C1067      O1761   1.265       .  A
C1067      C1177   1.473       .  S
O1069      V1077   1.899       .  S
O1069      C1783   1.263       .  A
O1070      V1077   1.889       .  S
O1070      C1080   1.260       .  A
O1071      V1077   1.910       .  S
O1071      C1081   1.267       .  A
O1072      V1077   1.909       .  S
O1072      C1786   1.268       .  A
O1073      V1078   1.891       .  S
O1073      C1082   1.260       .  A
O1074      V1078   1.893       .  S
O1075      V1078   1.919       .  S
O1076      V1078   1.913       .  S
O1076      C1079   1.269       .  A
V1077      V1782   2.088       .  T
C1079      C1241   1.474       .  S
C1080      O1779   1.267       .  A
C1080      C1173   1.471       .  S
C1081      O1778   1.262       .  A
C1081      C1182   1.476       .  S
C1082      C1322   1.475       .  S
O1083      V1091   1.904       .  S
O1083      C1093   1.264       .  A
O1085      V1091   1.896       .  S
O1085      C1095   1.262       .  A
O1086      V1091   1.897       .  S
O1086      C1096   1.265       .  A
O1087      V1092   1.902       .  S
O1087      C1096   1.263       .  A
O1088      V1092   1.902       .  S
O1088      C1095   1.265       .  A
O1089      V1092   1.899       .  S
O1089      C1094   1.266       .  A
O1090      V1092   1.895       .  S
O1090      C1093   1.264       .  A
V1091      O1788   1.901       .  S
V1091      V1092   2.088       .  T
C1093      C1169   1.475       .  S
C1094      O1788   1.263       .  A
C1094      C1174   1.475       .  S
C1095      C1178   1.472       .  S
C1096      C1314   1.474       .  S
O1097      V1105   1.899       .  S
O1097      C1107   1.262       .  A
O1098      V1105   1.891       .  S
O1098      C1108   1.261       .  A
O1099      V1105   1.911       .  S
O1099      C1109   1.268       .  A
O1100      V1105   1.911   1_554  S
O1100      C1110   1.268       .  A
O1101      V1106   1.895   1_554  S
O1101      C1110   1.261       .  A
O1102      V1106   1.891       .  S
O1102      C1109   1.260       .  A
O1103      V1106   1.917       .  S
O1103      C1108   1.269       .  A
O1104      V1106   1.909       .  S
O1104      C1107   1.268       .  A
V1105      V1106   2.088       .  T
C1107      C1210   1.481       .  S
C1108      C1166   1.478       .  S
C1109      C1278   1.474       .  S
C1110      C1162   1.476       .  S
O1111      V1119   1.904       .  S
O1111      C1121   1.267       .  A
O1112      V1823   1.900       .  S
O1112      C1826   1.264       .  A
O1113      V1823   1.904       .  S
O1113      C1827   1.265       .  A
O1114      V1119   1.903   1_554  S
O1114      C1124   1.265       .  A
O1115      V1120   1.895   1_554  S
O1115      C1124   1.262       .  A
O1116      V1120   1.896       .  S
O1116      C1123   1.263       .  A
O1117      V1120   1.908       .  S
O1117      C1122   1.265       .  A
O1118      V1120   1.905       .  S
O1118      C1121   1.264       .  A
V1119      V1120   2.088       .  T
C1121      C1165   1.482       .  S
C1124      C1157   1.470       .  S
O1125      V1133   1.897       .  S
O1125      C1839   1.262       .  A
O1126      V1133   1.897       .  S
O1126      C1136   1.263       .  A
O1127      V1133   1.908       .  S
O1127      C1841   1.267       .  A
O1128      V1133   1.901       .  S
O1128      C1138   1.266       .  A
O1129      V1134   1.886       .  S
O1130      V1134   1.889       .  S
O1130      C1137   1.260       .  A
O1131      V1134   1.909       .  S
O1132      V1134   1.907       .  S
O1132      C1135   1.267       .  A
V1133      V1838   2.088       .  T
C1135      C1161   1.478       .  S
C1136      O1835   1.266       .  A
C1136      C1290   1.477       .  S
C1137      C1154   1.471       .  S
C1138      O1833   1.263       .  A
C1138      C1374   1.477       .  S
O1139      V1147   1.898       .  S
O1139      C1149   1.263       .  A
O1140      V1147   1.894       .  S
O1140      C1150   1.261       .  A
O1141      V1147   1.905       .  S
O1141      C1151   1.267       .  A
O1142      V1147   1.906       .  S
O1142      C1152   1.265       .  A
O1143      V1148   1.892       .  S
O1143      C1152   1.263       .  A
O1144      V1148   1.895       .  S
O1144      C1151   1.261       .  A
O1145      V1148   1.905       .  S
O1145      C1150   1.267       .  A
O1146      V1148   1.902       .  S
O1146      C1149   1.265       .  A
V1147      V1148   2.088       .  T
C1149      C1170   1.473       .  S
C1150      C1153   1.473       .  S
C1151      C1298   1.472       .  S
C1152      C1158   1.474       .  S
C1153      C1154   1.339       .  D
C1154      H1156   1.087       .  S
H1155      C1857   1.087       .  S
C1157      C1158   1.342       .  D
C1157      H1159   1.087       .  S
C1158      H1160   1.087       .  S
C1161      C1162   1.342       .  D
C1161      H1163   1.087       .  S
C1162      H1164   1.087       .  S
C1165      C1166   1.343       .  D
C1165      H1167   1.086       .  S
C1166      H1168   1.087       .  S
C1169      C1170   1.344       .  D
C1169      H1171   1.087       .  S
C1170      H1172   1.087       .  S
C1173      C1174   1.340       .  D
C1173      H1175   1.087       .  S
C1174      H1176   1.087       .  S
C1177      C1178   1.342       .  D
C1177      H1883   1.087       .  S
C1178      H1180   1.087       .  S
C1181      C1182   1.345       .  D
C1181      H1183   1.087       .  S
C1182      H1184   1.087       .  S
C1185      C1186   1.347       .  D
C1185      H1187   1.087       .  S
C1186      H1188   1.087       .  S
C1189      C1190   1.343       .  D
C1189      H1191   1.087       .  S
C1190      H1192   1.087       .  S
C1193      C1194   1.343       .  D
C1193      H1195   1.087       .  S
C1194      H1196   1.087       .  S
C1197      C1198   1.343       .  D
C1197      H1199   1.087       .  S
H1200      C1902   1.087       .  S
C1201      C1906   1.341       .  D
C1201      H1203   1.087       .  S
H1204      C1906   1.087       .  S
C1205      C1206   1.345       .  D
C1205      H1207   1.087       .  S
C1206      H1208   1.087       .  S
C1209      C1210   1.342   1_565  D
C1209      H1211   1.087   1_565  S
C1210      H1212   1.087   1_545  S
C1213      C1214   1.353       .  D
C1213      H1215   1.086       .  S
C1214      C1688   1.484       .  S
C1214      H1920   1.086       .  S
C1217      C1218   1.341       .  D
C1217      H1219   1.087       .  S
C1218      H1220   1.087       .  S
C1221      C1222   1.341       .  D
C1221      H1223   1.087       .  S
C1222      C1685   1.476       .  S
C1222      H1224   1.087       .  S
C1225      C1226   1.339       .  D
C1225      H1227   1.087       .  S
C1226      H1932   1.087       .  S
C1229      C1230   1.336       .  D
C1229      H1231   1.087       .  S
C1230      H1232   1.087       .  S
C1233      C1234   1.339       .  D
C1233      H1235   1.087       .  S
C1234      H1236   1.087       .  S
C1237      C1238   1.339       .  D
C1237      H1239   1.087       .  S
C1238      H1240   1.087       .  S
C1241      C1242   1.340       .  D
C1241      H1243   1.087       .  S
C1242      H1244   1.087       .  S
C1245      C1246   1.349       .  D
C1245      H1247   1.087       .  S
C1246      H1248   1.087       .  S
C1249      C1250   1.347       .  D
C1249      H1251   1.087       .  S
C1250      H1252   1.087       .  S
C1253      C1254   1.342       .  D
C1253      H1255   1.087       .  S
C1254      H1256   1.087       .  S
C1257      C1258   1.339       .  D
C1257      H1259   1.087       .  S
C1258      H1260   1.087       .  S
C1261      C1262   1.338       .  D
C1261      H1263   1.087       .  S
C1262      H1264   1.087       .  S
C1265      C1266   1.337       .  D
C1265      H1267   1.087       .  S
C1266      H1268   1.087       .  S
C1269      C1270   1.339       .  D
C1269      H1271   1.087       .  S
C1270      H1272   1.087       .  S
C1273      C1274   1.345       .  D
C1273      H1275   1.087       .  S
C1274      C1827   1.472       .  S
C1274      H1980   1.087       .  S
C1277      C1278   1.339       .  D
C1277      H1279   1.087       .  S
C1278      H1280   1.087       .  S
C1281      C1282   1.344   1_545  D
C1281      H1283   1.087       .  S
C1282      H1284   1.087       .  S
C1285      C1286   1.340       .  D
C1285      H1287   1.087       .  S
C1286      H1288   1.087       .  S
C1289      C1290   1.347       .  D
C1289      H1291   1.087       .  S
C1290      H1292   1.087       .  S
C1293      C1294   1.341       .  D
C1293      H1295   1.087       .  S
C1294      H1296   1.087       .  S
C1297      C1298   1.338       .  D
C1297      H1299   1.087       .  S
C1298      H1300   1.087       .  S
C1301      C1302   1.344       .  D
C1301      H1303   1.087       .  S
C1302      H1304   1.087       .  S
C1305      C1306   1.340       .  D
C1305      H1307   1.087       .  S
C1306      H1308   1.087       .  S
C1309      C1310   1.340       .  D
C1309      H1311   1.087       .  S
C1310      H1312   1.087       .  S
C1313      C1314   1.342       .  D
C1313      H1315   1.087       .  S
C1314      H1316   1.087       .  S
C1317      C1318   1.346       .  D
C1317      H1319   1.087       .  S
C1318      C1826   1.476       .  S
C1318      H2024   1.087       .  S
C1321      C1322   1.339       .  D
C1322      H1324   1.087       .  S
H1323      C2025   1.087       .  S
C1325      C1326   1.339       .  D
C1325      H1327   1.087       .  S
C1326      H1328   1.087       .  S
C1329      C1330   1.347       .  D
C1329      H1331   1.086       .  S
C1330      H1332   1.087       .  S
C1333      C1334   1.338       .  D
C1333      H1335   1.087       .  S
C1334      C1772   1.476       .  S
C1334      H2040   1.087       .  S
C1337      C1338   1.343       .  D
C1337      H1339   1.087       .  S
C1338      H1340   1.087       .  S
C1341      C1342   1.341       .  D
C1341      H1343   1.087       .  S
C1342      H1344   1.087       .  S
C1345      C1346   1.341       .  D
C1345      H1347   1.087       .  S
C1346      H1348   1.087       .  S
C1349      C1350   1.343       .  D
C1349      H1351   1.087       .  S
C1350      H1352   1.087       .  S
C1353      C1354   1.340       .  D
C1353      H1355   1.087       .  S
C1354      H1356   1.087       .  S
C1357      C1358   1.338       .  D
C1357      H1359   1.087       .  S
C1358      H1360   1.087       .  S
C1361      C1362   1.339       .  D
C1361      H1363   1.087       .  S
C1362      H1364   1.087       .  S
C1365      H1367   1.087       .  S
C1366      C2069   1.339       .  D
C1366      H1368   1.087       .  S
C1369      C1370   1.336       .  D
C1369      H1371   1.087       .  S
C1370      H1372   1.087       .  S
C1373      C1374   1.342   1_565  D
C1373      H1375   1.087   1_565  S
C1374      H1376   1.087   1_545  S
C1377      C1378   1.339       .  D
C1377      H1379   1.087       .  S
C1378      H1380   1.087       .  S
C1381      C1382   1.337       .  D
C1381      H1383   1.087       .  S
C1382      H1384   1.087       .  S
C1385      C1386   1.337       .  D
C1385      H1387   1.087       .  S
C1386      H1388   1.086       .  S
C1389      C1390   1.337       .  D
C1389      H1391   1.087       .  S
C1390      H1392   1.087       .  S
C1393      C1394   1.345       .  D
C1393      H1395   1.087       .  S
C1394      H1396   1.087       .  S
C1397      C1398   1.342       .  D
C1397      H1399   1.087   1_545  S
C1398      C1419   1.474   1_545  S
C1398      H2104   1.087       .  S
C1401      C1402   1.338       .  D
C1401      H1403   1.087       .  S
C1402      H1404   1.087       .  S
C1405      C1406   1.338       .  D
C1405      H1407   1.086       .  S
C1406      H1408   1.087       .  S
O1409      V1417   1.897       .  S
O1409      C1419   1.262       .  A
O1410      V1417   1.898       .  S
O1410      C1420   1.261       .  A
O1411      V1417   1.906       .  S
O1411      C1421   1.267       .  A
O1412      V1417   1.908       .  S
O1412      C1422   1.266       .  A
O1413      V1418   1.891       .  S
O1413      C1422   1.262       .  A
O1414      V1418   1.891       .  S
O1414      C1421   1.260       .  A
O1415      V1418   1.907       .  S
O1415      C1420   1.269       .  A
O1416      V1418   1.902       .  S
O1416      C1419   1.266       .  A
V1417      V1418   2.088       .  T
C1420      C2109   1.479       .  S
C1421      C2106   1.470       .  S
C1422      C2098   1.473       .  S
O1423      V1431   1.882       .  S
O1423      C1433   1.258       .  A
O1424      V1431   1.878       .  S
O1424      C1434   1.257       .  A
O1425      V1431   1.910       .  S
O1425      C1435   1.268       .  A
O1426      V1431   1.908       .  S
O1426      C1436   1.268       .  A
O1427      V1432   1.891       .  S
O1427      C1436   1.260       .  A
O1428      V1432   1.888       .  S
O1428      C1435   1.260       .  A
O1429      V1432   1.914       .  S
O1429      C1434   1.268       .  A
O1430      V1432   1.921       .  S
O1430      C1433   1.270       .  A
V1431      V1432   2.089       .  T
C1433      C2110   1.474       .  S
C1434      C2089   1.466       .  S
C1435      C2085   1.472       .  S
C1436      C2093   1.474       .  S
O1437      V1445   1.889       .  S
O1437      C1447   1.259       .  A
O1438      V1445   1.885       .  S
O1438      C1448   1.260       .  A
O1439      V1445   1.908       .  S
O1439      C1449   1.266       .  A
O1440      V1445   1.908       .  S
O1440      C1450   1.269       .  A
O1441      V1446   1.893       .  S
O1441      C1450   1.260       .  A
O1442      V1446   1.891       .  S
O1442      C1449   1.261       .  A
O1443      V1446   1.912       .  S
O1443      C1448   1.267       .  A
O1444      V1446   1.908       .  S
O1444      C1447   1.268       .  A
V1445      V1446   2.089       .  T
C1447      C2105   1.470       .  S
C1448      C2073   1.468       .  S
C1449      C2077   1.471       .  S
C1450      C2081   1.476       .  S
O1451      V1459   1.885       .  S
O1451      C1461   1.259       .  A
O1452      V1459   1.881       .  S
O1452      C1462   1.257       .  A
O1453      V1459   1.914       .  S
O1453      C1463   1.269       .  A
O1454      V1459   1.917       .  S
O1454      C1464   1.270       .  A
O1455      V1460   1.885       .  S
O1455      C1464   1.258       .  A
O1456      V1460   1.885       .  S
O1456      C1463   1.258       .  A
O1457      V1460   1.920       .  S
O1457      C1462   1.271       .  A
O1458      V1460   1.915       .  S
O1458      C1461   1.269       .  A
V1459      V1460   2.088       .  T
C1461      C2069   1.473       .  S
C1462      C2082   1.473       .  S
C1463      C2094   1.471       .  S
C1464      C2066   1.473       .  S
O1465      V1473   1.891       .  S
O1465      C1475   1.261       .  A
O1466      V1473   1.887       .  S
O1466      C1476   1.259       .  A
O1467      V1473   1.910       .  S
O1467      C1477   1.268       .  A
O1468      V1473   1.910       .  S
O1468      C1478   1.268       .  A
O1469      V1474   1.892       .  S
O1469      C1478   1.260       .  A
O1470      V1474   1.895       .  S
O1470      C1477   1.261       .  A
O1471      V1474   1.913       .  S
O1471      C1476   1.269       .  A
O1472      V1474   1.908       .  S
O1472      C1475   1.267       .  A
V1473      V1474   2.088       .  T
C1475      C2053   1.473       .  S
C1476      C2062   1.473       .  S
C1477      C2057   1.476       .  S
C1478      C2049   1.474       .  S
O1479      V1487   1.899       .  S
O1480      V1487   1.893       .  S
O1480      C1490   1.260       .  A
O1481      V1487   1.914       .  S
O1481      C1491   1.267       .  A
O1482      V1487   1.915       .  S
O1483      V1488   1.885   1_655  S
O1483      C1492   1.258   1_655  A
O1484      C1491   1.260       .  A
O1485      C1490   1.268       .  A
O1486      V1488   1.910   1_655  S
O1486      C1489   1.267   1_655  A
C1489      C2041   1.465   1_455  S
C1490      C2061   1.475       .  S
C1491      C2045   1.469       .  S
C1492      C2037   1.471       .  S
O1493      V1501   1.894       .  S
O1493      C1503   1.264       .  A
O1494      V1501   1.894       .  S
O1495      V1501   1.909   1_554  S
O1495      C1505   1.268       .  A
O1496      V1501   1.908       .  S
O1496      C1506   1.267       .  A
O1497      V1502   1.894   1_455  S
O1498      V1502   1.890   1_554  S
O1499      V1502   1.916       .  S
O1499      C1504   1.269       .  A
O1500      C1503   1.267       .  A
C1503      C2033   1.483       .  S
C1504      C2029   1.471       .  S
C1505      C2025   1.476       .  S
C1506      C2058   1.477       .  S
O1507      V1515   1.911       .  S
O1507      C1517   1.267       .  A
O1508      V1515   1.913       .  S
O1508      C1518   1.267       .  A
O1509      V1515   1.889       .  S
O1509      C1519   1.263       .  A
O1510      V1515   1.891   1_554  S
O1510      C1520   1.261       .  A
O1511      V1516   1.908   1_554  S
O1511      C1520   1.267       .  A
O1512      V1516   1.911       .  S
O1512      C1519   1.266       .  A
O1513      V1516   1.896       .  S
O1513      C1518   1.263       .  A
O1514      V1516   1.894       .  S
O1514      C1517   1.263       .  A
V1515      V1516   2.087       .  T
C1517      C2021   1.479       .  S
C1518      C2034   1.477       .  S
C1519      C2046   1.479       .  S
C1520      C2017   1.471       .  S
O1521      V1529   1.891       .  S
O1521      C1531   1.261       .  A
O1522      V1529   1.887       .  S
O1522      C1532   1.260       .  A
O1523      V1529   1.912       .  S
O1523      C1533   1.269       .  A
O1524      V1529   1.909       .  S
O1524      C1534   1.267       .  A
O1525      V1530   1.892       .  S
O1525      C1534   1.262       .  A
O1526      V1530   1.890       .  S
O1526      C1533   1.260       .  A
O1527      V1530   1.911       .  S
O1527      C1532   1.267       .  A
O1528      V1530   1.910       .  S
O1528      C1531   1.267       .  A
V1529      V1530   2.089       .  T
C1531      C2009   1.473       .  S
C1532      C2001   1.469       .  S
C1533      C2013   1.475       .  S
C1534      C2006   1.474       .  S
O1535      V1543   1.900       .  S
O1535      C1545   1.263       .  A
O1536      V1543   1.896       .  S
O1536      C1546   1.261       .  A
O1537      V1543   1.905       .  S
O1537      C1547   1.266       .  A
O1538      V1543   1.905       .  S
O1538      C1548   1.266       .  A
O1539      V1544   1.896       .  S
O1539      C1548   1.262       .  A
O1540      V1544   1.897       .  S
O1540      C1547   1.263       .  A
O1541      V1544   1.907       .  S
O1541      C1546   1.268       .  A
O1542      V1544   1.902       .  S
O1542      C1545   1.266       .  A
V1543      V1544   2.088       .  T
C1545      C2101   1.476       .  S
C1546      C2014   1.476       .  S
C1547      C1993   1.475       .  S
C1548      C1997   1.473       .  S
O1549      V1557   1.902       .  S
O1549      C1559   1.263       .  A
O1550      V1557   1.897       .  S
O1550      C1560   1.264       .  A
O1551      V1557   1.901       .  S
O1551      C1561   1.266       .  A
O1552      V1557   1.901       .  S
O1552      C1562   1.265       .  A
O1553      V1558   1.901       .  S
O1553      C1562   1.263       .  A
O1554      V1558   1.899       .  S
O1554      C1561   1.263       .  A
O1555      V1558   1.897       .  S
O1555      C1560   1.263       .  A
O1556      V1558   1.889       .  S
O1556      C1559   1.264       .  A
V1557      V1558   2.088       .  T
C1559      C1985   1.471       .  S
C1560      C1990   1.470       .  S
C1561      C1981   1.474       .  S
C1562      C1998   1.475       .  S
O1563      V1571   1.898       .  S
O1563      C1573   1.263       .  A
O1564      V1571   1.889       .  S
O1564      C1574   1.265       .  A
O1565      V1571   1.896       .  S
O1565      C1575   1.264       .  A
O1566      V1571   1.900       .  S
O1566      C1576   1.263       .  A
O1567      V1572   1.902       .  S
O1567      C1576   1.266       .  A
O1568      V1572   1.905       .  S
O1568      C1575   1.265       .  A
O1569      V1572   1.903       .  S
O1569      C1574   1.263       .  A
O1570      V1572   1.897       .  S
O1570      C1573   1.265       .  A
V1571      V1572   2.088       .  T
C1573      C1989   1.471       .  S
C1574      C2042   1.474       .  S
C1575      C1977   1.477       .  S
C1576      C2010   1.476       .  S
O1577      V1585   1.901       .  S
O1577      C1587   1.262       .  A
O1578      V1585   1.896       .  S
O1578      C1588   1.262       .  A
O1579      V1585   1.906       .  S
O1579      C1589   1.268       .  A
O1580      V1585   1.906   1_554  S
O1580      C1590   1.265       .  A
O1581      V1586   1.888   1_554  S
O1581      C1590   1.262       .  A
O1582      V1586   1.887       .  S
O1582      C1589   1.259       .  A
O1583      V1586   1.905       .  S
O1583      C1588   1.267       .  A
O1584      V1586   1.898       .  S
O1584      C1587   1.267       .  A
V1585      V1586   2.088       .  T
C1587      C2030   1.477       .  S
C1588      C1973   1.474       .  S
C1589      C1966   1.469       .  S
C1590      C1969   1.472       .  S
O1591      V1599   1.895   1_554  S
O1591      C1601   1.262       .  A
O1592      V1599   1.893       .  S
O1592      C1602   1.262       .  A
O1593      V1599   1.905       .  S
O1593      C1603   1.267       .  A
O1594      V1599   1.902       .  S
O1594      C1604   1.266       .  A
O1595      V1600   1.902       .  S
O1595      C1604   1.263       .  A
O1596      V1600   1.896       .  S
O1596      C1603   1.262       .  A
O1597      V1600   1.906       .  S
O1597      C1602   1.266       .  A
O1598      V1600   1.906   1_554  S
O1598      C1601   1.266       .  A
V1599      V1600   2.088       .  T
C1601      C1961   1.473       .  S
C1602      C1953   1.474       .  S
C1603      C1974   1.474       .  S
C1604      C1957   1.479       .  S
O1605      V1613   1.904       .  S
O1605      C1615   1.265       .  A
O1606      V1613   1.904       .  S
O1606      C1616   1.264       .  A
O1607      V1613   1.898       .  S
O1607      C1617   1.263       .  A
O1608      V1613   1.900       .  S
O1608      C1618   1.265       .  A
O1609      V1614   1.894       .  S
O1609      C1618   1.261       .  A
O1610      V1614   1.897       .  S
O1610      C1617   1.264       .  A
O1611      V1614   1.904       .  S
O1611      C1616   1.266       .  A
O1612      V1614   1.907       .  S
O1612      C1615   1.266       .  A
V1613      V1614   2.088       .  T
C1615      C1950   1.480       .  S
C1616      C1946   1.480       .  S
C1617      C1970   1.469       .  S
C1618      C1942   1.470       .  S
O1619      V1627   1.900       .  S
O1619      C1629   1.263       .  A
O1620      V1627   1.900       .  S
O1620      C1630   1.264       .  A
O1621      V1627   1.902       .  S
O1621      C1631   1.266       .  A
O1622      V1627   1.901       .  S
O1622      C1632   1.265       .  A
O1623      V1628   1.900       .  S
O1623      C1632   1.263       .  A
O1624      V1628   1.899   1_455  S
O1624      C1631   1.262   1_455  A
O1625      V1628   1.910       .  S
O1625      C1630   1.266       .  A
O1626      V1628   1.903   1_455  S
O1626      C1629   1.267   1_455  A
V1627      V1628   2.088       .  T
C1629      C2070   1.477       .  S
C1630      C1949   1.481       .  S
C1631      C1938   1.475       .  S
C1632      C1962   1.476       .  S
O1633      V1641   1.903       .  S
O1633      C1643   1.263       .  A
O1634      V1641   1.900       .  S
O1635      V1641   1.896       .  S
O1636      V1641   1.898       .  S
O1636      C1646   1.262       .  A
O1637      V1642   1.893       .  S
O1638      V1642   1.893       .  S
O1638      C1645   1.262       .  A
O1639      V1642   1.903       .  S
O1639      C1644   1.265       .  A
O1640      V1642   1.907       .  S
C1643      C1933   1.478       .  S
C1644      C1986   1.466       .  S
C1645      C2097   1.473       .  S
C1646      C1930   1.473       .  S
O1647      V1655   1.893       .  S
O1647      C1657   1.261       .  A
O1648      V1655   1.885       .  S
O1648      C1658   1.259       .  A
O1649      V1655   1.910       .  S
O1649      C1659   1.267       .  A
O1650      V1655   1.908       .  S
O1650      C1660   1.268       .  A
O1651      V1656   1.891       .  S
O1651      C1660   1.260       .  A
O1652      V1656   1.895       .  S
O1652      C1659   1.262       .  A
O1653      V1656   1.916       .  S
O1653      C1658   1.269       .  A
O1654      V1656   1.912       .  S
O1654      C1657   1.268       .  A
V1655      V1656   2.088       .  T
C1657      C1921   1.476       .  S
C1658      C1934   1.471       .  S
C1659      C1925   1.475       .  S
C1660      C2086   1.472       .  S
O1661      V1669   1.907       .  S
O1661      C1671   1.264       .  A
O1662      V1669   1.900       .  S
O1662      C1672   1.266       .  A
O1663      V1669   1.891       .  S
O1663      C1673   1.261       .  A
O1664      V1669   1.889   1_554  S
O1664      C1674   1.264       .  A
O1665      V1670   1.907   1_554  S
O1665      C1674   1.264       .  A
O1666      V1670   1.908       .  S
O1666      C1673   1.267       .  A
O1667      V1670   1.898       .  S
O1667      C1672   1.262       .  A
O1668      V1670   1.890       .  S
O1668      C1671   1.264       .  A
V1669      V1670   2.088       .  T
C1671      C1913   1.476   1_565  S
C1672      C1917   1.472       .  S
C1673      C1929   1.471       .  S
C1674      C2074   1.476       .  S
O1675      V1683   1.898       .  S
O1675      C1685   1.262       .  A
O1676      V1683   1.897   1_554  S
O1676      C1686   1.261       .  A
O1677      V1683   1.911       .  S
O1677      C1687   1.268       .  A
O1678      V1683   1.916       .  S
O1678      C1688   1.269       .  A
O1679      V1684   1.902       .  S
O1680      C1687   1.262       .  A
O1681      C1686   1.268       .  A
O1682      V1684   1.897       .  S
C1686      C2065   1.477       .  S
C1687      C1958   1.476       .  S
O1689      V1697   1.893       .  S
O1689      C1699   1.263   1_655  A
O1690      V1697   1.890       .  S
O1690      C1700   1.260       .  A
O1691      V1697   1.910       .  S
O1691      C1701   1.268   1_655  A
O1692      V1697   1.904       .  S
O1692      C1702   1.267       .  A
O1693      V1698   1.896       .  S
O1693      C1702   1.261   1_455  A
O1695      V1698   1.904   1_655  S
O1695      C1700   1.267       .  A
O1696      V1698   1.904       .  S
O1696      C1699   1.265       .  A
V1697      V1698   2.089   1_655  T
C1699      C1905   1.474       .  S
C1700      C1965   1.470       .  S
C1702      C2054   1.475       .  S
O1703      V1711   1.896       .  S
O1703      C1713   1.262       .  A
O1704      V1711   1.893       .  S
O1704      C1714   1.262       .  A
O1705      V1711   1.911       .  S
O1705      C1715   1.268       .  A
O1706      V1711   1.905       .  S
O1706      C1716   1.267       .  A
O1707      V1712   1.900       .  S
O1707      C1716   1.263       .  A
O1708      V1712   1.897       .  S
O1708      C1715   1.262       .  A
O1709      V1712   1.907       .  S
O1709      C1714   1.266       .  A
O1710      V1712   1.907       .  S
O1710      C1713   1.267       .  A
V1711      V1712   2.088       .  T
C1713      C1901   1.476       .  S
C1714      C1954   1.474       .  S
C1715      C1910   1.479       .  S
C1716      C1922   1.479       .  S
O1717      V1725   1.912       .  S
O1717      C1727   1.265       .  A
O1718      V1725   1.904       .  S
O1718      C1728   1.266       .  A
O1719      V1725   1.900       .  S
O1719      C1729   1.266       .  A
O1720      V1725   1.899       .  S
O1720      C1730   1.263       .  A
O1721      V1726   1.894       .  S
O1721      C1730   1.264       .  A
O1722      V1726   1.895       .  S
O1722      C1729   1.262       .  A
O1723      V1726   1.891       .  S
O1723      C1728   1.261       .  A
O1724      V1726   1.884       .  S
O1724      C1727   1.264       .  A
V1725      V1726   2.088       .  T
C1727      C1893   1.480       .  S
C1728      C1897   1.468       .  S
C1729      C1941   1.470       .  S
C1730      C1906   1.470       .  S
O1731      V1739   1.894       .  S
O1732      V1739   1.891       .  S
O1732      C1742   1.261       .  A
O1733      V1739   1.901       .  S
O1734      V1739   1.892       .  S
O1734      C1744   1.266       .  A
O1735      V1740   1.899       .  S
O1736      V1740   1.891       .  S
O1736      C1743   1.264       .  A
O1737      V1740   1.904       .  S
O1738      V1740   1.906       .  S
O1738      C1741   1.267       .  A
C1741      C1902   1.476       .  S
C1742      C1937   1.473       .  S
C1743      C1898   1.473       .  S
C1744      C2090   1.474       .  S
O1745      V1753   1.893       .  S
O1745      C1755   1.260       .  A
O1746      V1753   1.891       .  S
O1746      C1756   1.260       .  A
O1747      V1753   1.917       .  S
O1747      C1757   1.268       .  A
O1748      V1753   1.921       .  S
O1748      C1758   1.271       .  A
O1749      V1754   1.881       .  S
O1749      C1758   1.257       .  A
O1750      V1754   1.879       .  S
O1750      C1757   1.259       .  A
O1751      V1754   1.910       .  S
O1751      C1756   1.268       .  A
O1752      V1754   1.908       .  S
O1752      C1755   1.268       .  A
V1753      V1754   2.088       .  T
C1755      C1885   1.474       .  S
C1756      C2050   1.473       .  S
C1757      C1894   1.468       .  S
C1758      C1890   1.474       .  S
O1759      V1767   1.904       .  S
O1760      V1767   1.897       .  S
O1760      C1770   1.265       .  A
O1761      V1767   1.897       .  S
O1762      V1767   1.897       .  S
O1762      C1772   1.262       .  A
O1763      V1768   1.912       .  S
O1764      V1768   1.914       .  S
O1764      C1771   1.268       .  A
O1765      V1768   1.888       .  S
O1766      V1768   1.891       .  S
O1766      C1769   1.259       .  A
C1769      C1889   1.477       .  S
C1770      C2005   1.478       .  S
C1771      C1881   1.467       .  S
O1773      V1781   1.894       .  S
O1774      V1781   1.887       .  S
O1774      C1784   1.260       .  A
O1775      V1781   1.910       .  S
O1775      C1785   1.268       .  A
O1776      V1781   1.910       .  S
O1777      V1782   1.895       .  S
O1777      C1786   1.261       .  A
O1778      V1782   1.897       .  S
O1779      V1782   1.910       .  S
O1780      V1782   1.908       .  S
O1780      C1783   1.267       .  A
C1783      C1945   1.479       .  S
C1784      C1877   1.474       .  S
C1785      C1886   1.473       .  S
C1786      C2026   1.475       .  S
O1787      V1795   1.903       .  S
O1787      C1797   1.265       .  A
O1789      V1795   1.895       .  S
O1789      C1799   1.265       .  A
O1790      V1795   1.900       .  S
O1790      C1800   1.263       .  A
O1791      V1796   1.899       .  S
O1791      C1800   1.266       .  A
O1792      V1796   1.903       .  S
O1792      C1799   1.263       .  A
O1793      V1796   1.900       .  S
O1793      C1798   1.266       .  A
O1794      V1796   1.898       .  S
O1794      C1797   1.264       .  A
V1795      V1796   2.088       .  T
C1797      C1873   1.475       .  S
C1798      C1878   1.479       .  S
C1799      C1882   1.475       .  S
C1800      C2018   1.474       .  S
O1801      V1809   1.889       .  S
O1801      C1811   1.261       .  A
O1802      V1809   1.889       .  S
O1802      C1812   1.260       .  A
O1803      V1809   1.905       .  S
O1803      C1813   1.266       .  A
O1804      V1809   1.905   1_554  S
O1804      C1814   1.266       .  A
O1805      V1810   1.900   1_554  S
O1805      C1814   1.263       .  A
O1806      V1810   1.895       .  S
O1806      C1813   1.262       .  A
O1807      V1810   1.912       .  S
O1807      C1812   1.268       .  A
O1808      V1810   1.908       .  S
O1808      C1811   1.266       .  A
V1809      V1810   2.088       .  T
C1811      C1914   1.469       .  S
C1812      C1870   1.472       .  S
C1813      C1982   1.473       .  S
C1814      C1866   1.477       .  S
O1815      V1823   1.901       .  S
O1815      C1825   1.266       .  A
O1818      V1823   1.903   1_554  S
O1818      C1828   1.266       .  A
O1819      V1824   1.897   1_554  S
O1819      C1828   1.262       .  A
O1820      V1824   1.897       .  S
O1820      C1827   1.263       .  A
O1821      V1824   1.902       .  S
O1821      C1826   1.265       .  A
O1822      V1824   1.900       .  S
O1822      C1825   1.263       .  A
V1823      V1824   2.088       .  T
C1825      C1869   1.477       .  S
C1828      C1861   1.473       .  S
O1829      V1837   1.895       .  S
O1830      V1837   1.895       .  S
O1830      C1840   1.263       .  A
O1831      V1837   1.898       .  S
O1832      V1837   1.892       .  S
O1832      C1842   1.264       .  A
O1833      V1838   1.901       .  S
O1834      V1838   1.895       .  S
O1834      C1841   1.262       .  A
O1835      V1838   1.909       .  S
O1836      V1838   1.908       .  S
O1836      C1839   1.267       .  A
C1839      C1865   1.476       .  S
C1840      C1994   1.476       .  S
C1841      C1858   1.476       .  S
C1842      C2078   1.476       .  S
O1843      V1851   1.902       .  S
O1843      C1853   1.264       .  A
O1844      V1851   1.900       .  S
O1844      C1854   1.263       .  A
O1845      V1851   1.897       .  S
O1845      C1855   1.265       .  A
O1846      V1851   1.898       .  S
O1846      C1856   1.262       .  A
O1847      V1852   1.901       .  S
O1847      C1856   1.266       .  A
O1848      V1852   1.901       .  S
O1848      C1855   1.263       .  A
O1849      V1852   1.904       .  S
O1849      C1854   1.266       .  A
O1850      V1852   1.898       .  S
O1850      C1853   1.264       .  A
V1851      V1852   2.088       .  T
C1853      C1874   1.475       .  S
C1854      C1857   1.477       .  S
C1855      C2002   1.474       .  S
C1856      C1862   1.473       .  S
C1857      C1858   1.342       .  D
C1858      H1860   1.087       .  S
C1861      C1862   1.341       .  D
C1861      H1863   1.087       .  S
C1862      H1864   1.087       .  S
C1865      C1866   1.342       .  D
C1865      H1867   1.087       .  S
C1866      H1868   1.087       .  S
C1869      C1870   1.341       .  D
C1869      H1871   1.087       .  S
C1870      H1872   1.087       .  S
C1873      C1874   1.345       .  D
C1873      H1875   1.087       .  S
C1874      H1876   1.087       .  S
C1877      C1878   1.342       .  D
C1877      H1879   1.087       .  S
C1878      H1880   1.086   1_655  S
C1881      C1882   1.339       .  D
C1882      H1884   1.086       .  S
C1885      C1886   1.339       .  D
C1885      H1887   1.087       .  S
C1886      H1888   1.087       .  S
C1889      C1890   1.336       .  D
C1889      H1891   1.087       .  S
C1890      H1892   1.087       .  S
C1893      C1894   1.343       .  D
C1893      H1895   1.086       .  S
C1894      H1896   1.087       .  S
C1897      C1898   1.342       .  D
C1897      H1899   1.087       .  S
C1898      H1900   1.087       .  S
C1901      C1902   1.342       .  D
C1901      H1903   1.087       .  S
C1905      H1907   1.087       .  S
C1909      C1910   1.343       .  D
C1909      H1911   1.087       .  S
C1910      H1912   1.087       .  S
C1913      C1914   1.343       .  D
C1913      H1915   1.086       .  S
C1914      H1916   1.087   1_545  S
C1917      C1918   1.341       .  D
C1917      H1919   1.087       .  S
C1921      C1922   1.342       .  D
C1921      H1923   1.087       .  S
C1922      H1924   1.087       .  S
C1925      C1926   1.344       .  D
C1925      H1927   1.087       .  S
C1926      H1928   1.087   1_655  S
C1929      C1930   1.340       .  D
C1929      H1931   1.087       .  S
C1933      C1934   1.340       .  D
C1933      H1935   1.087       .  S
C1934      H1936   1.087       .  S
C1937      C1938   1.340       .  D
C1937      H1939   1.087       .  S
C1938      H1940   1.087   1_655  S
C1941      C1942   1.340       .  D
C1941      H1943   1.087       .  S
C1942      H1944   1.087       .  S
C1945      C1946   1.344       .  D
C1945      H1947   1.087       .  S
C1946      H1948   1.087       .  S
C1949      C1950   1.348       .  D
C1949      H1951   1.087       .  S
C1950      H1952   1.087       .  S
C1953      C1954   1.347       .  D
C1953      H1955   1.087       .  S
C1954      H1956   1.087       .  S
C1957      C1958   1.343       .  D
C1957      H1959   1.087       .  S
C1958      H1960   1.087       .  S
C1961      C1962   1.342       .  D
C1961      H1963   1.087       .  S
C1962      H1964   1.087       .  S
C1965      C1966   1.337       .  D
C1965      H1967   1.087       .  S
C1966      H1968   1.087       .  S
C1969      C1970   1.344       .  D
C1969      H1971   1.087       .  S
C1970      H1972   1.087       .  S
C1973      C1974   1.341       .  D
C1973      H1975   1.087       .  S
C1974      H1976   1.087       .  S
C1977      C1978   1.344       .  D
C1977      H1979   1.087       .  S
C1981      C1982   1.341       .  D
C1981      H1983   1.087       .  S
C1982      H1984   1.087       .  S
C1985      C1986   1.341   1_545  D
C1985      H1987   1.087   1_545  S
C1986      H1988   1.087   1_565  S
C1989      C1990   1.342       .  D
C1989      H1991   1.087       .  S
C1990      H1992   1.087       .  S
C1993      C1994   1.347       .  D
C1993      H1995   1.087       .  S
C1994      H1996   1.087   1_655  S
C1997      C1998   1.342       .  D
C1997      H1999   1.087       .  S
C1998      H2000   1.087       .  S
C2001      C2002   1.339       .  D
C2001      H2003   1.087       .  S
C2002      H2004   1.086       .  S
C2005      C2006   1.343       .  D
C2005      H2007   1.086       .  S
C2006      H2008   1.087       .  S
C2009      C2010   1.341       .  D
C2009      H2011   1.087       .  S
C2010      H2012   1.087       .  S
C2013      C2014   1.340       .  D
C2013      H2015   1.087       .  S
C2014      H2016   1.087       .  S
C2017      C2018   1.341       .  D
C2017      H2019   1.087       .  S
C2018      H2020   1.087       .  S
C2021      C2022   1.348       .  D
C2021      H2023   1.086       .  S
C2025      C2026   1.340       .  D
C2026      H2028   1.087       .  S
C2029      C2030   1.340       .  D
C2029      H2031   1.087   1_655  S
C2030      H2032   1.086       .  S
C2033      C2034   1.347       .  D
C2033      H2035   1.086       .  S
C2034      H2036   1.087       .  S
C2037      C2038   1.334       .  D
C2037      H2039   1.087   1_455  S
C2041      C2042   1.340       .  D
C2041      H2043   1.087   1_655  S
C2042      H2044   1.086       .  S
C2045      C2046   1.343       .  D
C2045      H2047   1.087       .  S
C2046      H2048   1.086       .  S
C2049      C2050   1.338       .  D
C2049      H2051   1.087       .  S
C2050      H2052   1.087       .  S
C2053      C2054   1.341       .  D
C2053      H2055   1.087       .  S
C2054      H2056   1.087       .  S
C2057      C2058   1.341       .  D
C2057      H2059   1.087       .  S
C2058      H2060   1.087       .  S
C2061      C2062   1.338       .  D
C2061      H2063   1.087       .  S
C2062      H2064   1.087       .  S
C2065      C2066   1.338       .  D
C2065      H2067   1.087       .  S
C2066      H2068   1.087       .  S
C2069      H2071   1.087       .  S
C2070      H2072   1.087       .  S
C2073      C2074   1.341       .  D
C2073      H2075   1.087       .  S
C2074      H2076   1.086       .  S
C2077      C2078   1.343   1_565  D
C2077      H2079   1.087   1_565  S
C2078      H2080   1.086   1_545  S
C2081      C2082   1.337       .  D
C2081      H2083   1.087       .  S
C2082      H2084   1.087       .  S
C2085      C2086   1.337       .  D
C2085      H2087   1.087       .  S
C2086      H2088   1.087       .  S
C2089      C2090   1.338       .  D
C2089      H2091   1.087       .  S
C2090      H2092   1.086       .  S
C2093      C2094   1.337       .  D
C2093      H2095   1.087       .  S
C2094      H2096   1.087       .  S
C2097      C2098   1.347       .  D
C2097      H2099   1.087       .  S
C2098      H2100   1.087       .  S
C2101      C2102   1.342   1_645  D
C2101      H2103   1.087   1_545  S
C2105      C2106   1.337       .  D
C2105      H2107   1.087       .  S
C2106      H2108   1.087       .  S
C2109      C2110   1.339       .  D
C2109      H2111   1.086       .  S
C2110      H2112   1.087       .  S
