geometry optimzed in LAMMPS
_audit_creation_date              2020-12-01 
_audit_creation_method            'lammps2cif' 
_symmetry_space_group_name_H-M    'P1' 
_symmetry_Int_Tables_number       1 
_symmetry_cell_setting            triclinic 
loop_ 
_symmetry_equiv_pos_as_xyz 
  x,y,z 
_cell_length_a                    48.45045436 
_cell_length_b                    26.990356279776993 
_cell_length_c                    29.234229558436137 
_cell_angle_alpha                 90.70975416046477 
_cell_angle_beta                  95.98390088476935 
_cell_angle_gamma                 90.34774439645568 
loop_ 
_atom_site_label 
_atom_site_type_symbol 
_atom_site_fract_x 
_atom_site_fract_y 
_atom_site_fract_z 
_atom_site_charge 
O1          O  0.80794269  0.64166421  0.76050342    -0.82300
C2          C  0.84676089  0.51314788  0.63019299     0.97100
O3          O  0.85530738  0.55752344  0.63669908    -0.71400
O4          O  0.81193709  0.61372439  0.63136683    -0.75000
Al5        Al  0.84263458  0.60908882  0.67597260     1.49000
C6          C  0.78777307  0.62630261  0.63819701     0.92400
O7          O  0.77451265  0.52582528  0.70464354    -0.81200
O8          O  0.84496420  0.52516639  0.78708874    -0.74700
Al9        Al  0.79346069  0.58330268  0.73118787     1.90100
O10         O  0.80673950  0.47370850  0.72958771    -0.73800
O11         O  0.87871066  0.52893397  0.72186544    -0.73700
O12         O  0.83714776  0.48960197  0.66209284    -0.79300
O13         O  0.87622778  0.60939123  0.71653622    -0.77500
O14         O  0.82547206  0.56753168  0.71034751    -1.13700
O15         O  0.83215462  0.66910742  0.70689196    -0.72900
C16         C  0.81928836  0.67707481  0.74184521     0.97900
C17         C  0.78176168  0.48224769  0.71525462     0.94300
Al18       Al  0.84069074  0.50916879  0.72409558     1.55600
O19         O  0.77889444  0.61974861  0.67699387    -0.77500
C20         C  0.89048363  0.57086665  0.72420566     0.98400
C21         C  0.82489141  0.53548594  0.80969862     0.93300
O22         O  0.80209062  0.55134681  0.78995926    -0.82800
O23         O  0.69070382  0.87221046  0.20686675    -0.82300
C24         C  0.63633141  0.91636993  0.35464499     0.97100
O25         O  0.64696488  0.93912654  0.32328479    -0.71400
O26         O  0.68065473  0.95363726  0.26013796    -0.75000
Al27       Al  0.64711748  0.91624372  0.26261511     1.49000
C28         C  0.70478083  0.94810869  0.27994562     0.92400
O29         O  0.70884146  0.81562859  0.32737669    -0.81200
O30         O  0.65720313  0.75882610  0.28919722    -0.74700
Al31       Al  0.69667812  0.84564793  0.26867098     1.90100
O32         O  0.67184280  0.81805015  0.36416246    -0.73800
O33         O  0.61269528  0.81501039  0.26949273    -0.73700
O34         O  0.62799440  0.87181159  0.34850548    -0.79300
O35         O  0.60919187  0.89470871  0.25992754    -0.77500
O36         O  0.66266800  0.85977558  0.28199246    -1.13700
O37         O  0.64691231  0.89607849  0.20109043    -0.72900
C38         C  0.66855022  0.88494027  0.18269707     0.97900
C39         C  0.69738632  0.81030199  0.36408634     0.94300
Al40       Al  0.64389953  0.81911339  0.31483155     1.55600
O41         O  0.71216639  0.90602016  0.29448842    -0.77500
C42         C  0.59810290  0.85226288  0.25812085     0.98400
C43         C  0.67316878  0.74955330  0.25864527     0.93300
O44         O  0.68610767  0.78404531  0.24148320    -0.82800
O45         O  0.68078965  0.14393893  0.72987507    -0.82300
C46         C  0.64913695  0.01393107  0.86359046     0.97100
O47         O  0.63884267  0.05669350  0.85723797    -0.71400
O48         O  0.68165140  0.11434231  0.85886405    -0.75000
Al49       Al  0.64994712  0.10813909  0.81731001     1.49000
C50         C  0.70528981  0.12816707  0.85016277     0.92400
O51         O  0.71830928  0.03043248  0.78006896    -0.81200
O52         O  0.64576287  0.02101695  0.70611171    -0.74700
Al53       Al  0.69721795  0.08615860  0.75649929     1.90100
O54         O  0.68632320  0.97488550  0.76068140    -0.73800
O55         O  0.61401318  0.02514869  0.77346850    -0.73700
O56         O  0.65821033  0.99042528  0.83083872    -0.79300
O57         O  0.61559688  0.10592887  0.77901743    -0.77500
O58         O  0.66659075  0.06769668  0.78069702    -1.13700
O59         O  0.65883819  0.16857198  0.78750313    -0.72900
C60         C  0.67046950  0.17837591  0.75193126     0.97900
C61         C  0.71146806  0.98571477  0.77232044     0.94300
Al62       Al  0.65223160  0.00776188  0.76869348     1.55600
O63         O  0.71301616  0.12322255  0.81027969    -0.77500
C64         C  0.60171871  0.06639294  0.77159712     0.98400
C65         C  0.66371908  0.03491122  0.68066799     0.93300
O66         O  0.68667277  0.05375242  0.69776509    -0.82800
O67         O  0.80068383  0.36737982  0.28873747    -0.82300
C68         C  0.84672985  0.41341580  0.13333595     0.97100
O69         O  0.83795624  0.43595917  0.16693940    -0.71400
O70         O  0.80819142  0.45046099  0.23609145    -0.75000
Al71       Al  0.84085731  0.41293852  0.22747241     1.49000
C72         C  0.78317397  0.44446763  0.22021200     0.92400
O73         O  0.77563654  0.31377801  0.16779639    -0.81200
O74         O  0.82805609  0.25523487  0.19718256    -0.74700
Al75       Al  0.79103933  0.34207720  0.22657790     1.90100
O76         O  0.81096831  0.31661482  0.12681357    -0.73800
O77         O  0.87284694  0.31118251  0.21388937    -0.73700
O78         O  0.85538833  0.36915644  0.13759776    -0.79300
O79         O  0.87825191  0.39086210  0.22423085    -0.77500
O80         O  0.82397473  0.35655956  0.20877470    -1.13700
O81         O  0.84417297  0.39265955  0.28866171    -0.72900
C82         C  0.82389649  0.38050142  0.31008323     0.97900
C83         C  0.78550013  0.31097346  0.12932790     0.94300
Al84       Al  0.84052498  0.31614197  0.17207044     1.55600
O85         O  0.77484565  0.40252012  0.20538615    -0.77500
C86         C  0.88843254  0.34789497  0.22424169     0.98400
C87         C  0.81455645  0.24620640  0.23088938     0.93300
O88         O  0.80239417  0.28033254  0.25014113    -0.82800
O89         O  0.17936254  0.65127402  0.72366673    -0.82300
C90         C  0.14576791  0.52096906  0.85650980     0.97100
O91         O  0.13667587  0.56473843  0.85085026    -0.71400
O92         O  0.18032692  0.62003510  0.85352392    -0.75000
Al93       Al  0.14862251  0.61653855  0.81159738     1.49000
C94         C  0.20389340  0.63420501  0.84486361     0.92400
O95         O  0.21580748  0.53829896  0.77538645    -0.81200
O96         O  0.14388855  0.53085171  0.69803932    -0.74700
Al97       Al  0.19552692  0.59379075  0.75083867     1.90100
O98         O  0.18392059  0.48286439  0.75416995    -0.73800
O99         O  0.11191227  0.53548998  0.76591538    -0.73700
O100        O  0.15480255  0.49769407  0.82353699    -0.79300
O101        O  0.11419551  0.61637275  0.77322659    -0.77500
O102        O  0.16466901  0.57589654  0.77442870    -1.13700
O103        O  0.15875072  0.67770961  0.78228813    -0.72900
C104        C  0.17009335  0.68654354  0.74598882     0.97900
C105        C  0.20891602  0.49369601  0.76747451     0.94300
Al106      Al  0.14977270  0.51653948  0.76130024     1.55600
O107        O  0.21127252  0.63092149  0.80464449    -0.77500
C108        C  0.10005988  0.57710753  0.76578095     0.98400
C109        C  0.16269474  0.54351173  0.67358415     0.93300
O110        O  0.18561226  0.56114451  0.69200304    -0.82800
O111        O  0.30215510  0.87346162  0.28478268    -0.82300
C112        C  0.34669661  0.91787734  0.12688985     0.97100
O113        O  0.33831956  0.94023217  0.16092242    -0.71400
O114        O  0.30884342  0.95496313  0.23052757    -0.75000
Al115      Al  0.34165886  0.91756261  0.22158911     1.49000
C116        C  0.28341610  0.94842274  0.21740123     0.92400
O117        O  0.27593114  0.81641885  0.16553590    -0.81200
O118        O  0.32826276  0.75957895  0.19289833    -0.74700
Al119      Al  0.29200828  0.84648134  0.22335538     1.90100
O120        O  0.31046398  0.82069206  0.12297654    -0.73800
O121        O  0.37380488  0.81551285  0.20644128    -0.73700
O122        O  0.35488203  0.87323828  0.13049837    -0.79300
O123        O  0.37912234  0.89525492  0.21792290    -0.77500
O124        O  0.32466267  0.86103152  0.20394190    -1.13700
O125        O  0.34556952  0.89823711  0.28308520    -0.72900
C126        C  0.32525297  0.88836129  0.30522961     0.97900
C127        C  0.28527788  0.81339863  0.12665490     0.94300
Al128      Al  0.34062152  0.82040026  0.16657193     1.55600
O129        O  0.27513889  0.90653331  0.20211015    -0.77500
C130        C  0.38931814  0.85231809  0.21700625     0.98400
C131        C  0.31487081  0.75055063  0.22687683     0.93300
O132        O  0.30395299  0.78524615  0.24743220    -0.82800
O133        O  0.18669934  0.36927736  0.19784330    -0.82300
C134        C  0.13451248  0.42250703  0.34835014     0.97100
O135        O  0.14523476  0.44309613  0.31582257    -0.71400
O136        O  0.17815602  0.45309504  0.25047611    -0.75000
Al137      Al  0.14464605  0.41669169  0.25557110     1.49000
C138        C  0.20305673  0.44703130  0.26665832     0.92400
O139        O  0.20699258  0.31594709  0.32020693    -0.81200
O140        O  0.15673270  0.26092377  0.29184143    -0.74700
Al141      Al  0.19377096  0.34468735  0.26061484     1.90100
O142        O  0.17190416  0.32819776  0.36021072    -0.73800
O143        O  0.11163700  0.31485787  0.26960205    -0.73700
O144        O  0.12662976  0.37761243  0.34442224    -0.79300
O145        O  0.10703454  0.39383849  0.25523632    -0.77500
O146        O  0.16059710  0.36128067  0.27632485    -1.13700
O147        O  0.14329778  0.39433926  0.19419384    -0.72900
C148        C  0.16439446  0.38279062  0.17452202     0.97900
C149        C  0.19649560  0.31486395  0.35831482     0.94300
Al150      Al  0.14307746  0.32333023  0.31321424     1.55600
O151        O  0.21074616  0.40563525  0.28277569    -0.77500
C152        C  0.09659905  0.35088941  0.25620829     0.98400
C153        C  0.17040491  0.24920969  0.25878445     0.93300
O154        O  0.18122479  0.28231151  0.23633108    -0.82800
O155        O  0.30832229  0.15297818  0.75468133    -0.82300
C156        C  0.34823639  0.02396485  0.62589825     0.97100
O157        O  0.35708130  0.06809936  0.63286116    -0.71400
O158        O  0.31380051  0.12384155  0.62640818    -0.75000
Al159      Al  0.34402003  0.11958092  0.67163378     1.49000
C160        C  0.28930137  0.13522633  0.63208679     0.92400
O161        O  0.27503533  0.03692263  0.69919049    -0.81200
O162        O  0.34497726  0.03516292  0.78242268    -0.74700
Al163      Al  0.29408793  0.09431609  0.72568934     1.90100
O164        O  0.30675127  0.98414156  0.72395381    -0.73800
O165        O  0.37899727  0.03879225  0.71779239    -0.73700
O166        O  0.33772649  0.00058527  0.65702362    -0.79300
O167        O  0.37755527  0.11947042  0.71301792    -0.77500
O168        O  0.32625886  0.07821427  0.70558301    -1.13700
O169        O  0.33304237  0.17995252  0.70153031    -0.72900
C170        C  0.31949053  0.18825860  0.73561460     0.97900
C171        C  0.28185615  0.99310718  0.70931302     0.94300
Al172      Al  0.34094849  0.01952519  0.71927093     1.55600
O173        O  0.27998422  0.12970710  0.67068096    -0.77500
C174        C  0.39135381  0.08020060  0.72011733     0.98400
C175        C  0.32522293  0.04720434  0.80514532     0.93300
O176        O  0.30247855  0.06318787  0.78516360    -0.82800
C177        C  0.21177369  0.29443069  0.40082530    -0.20300
C178        C  0.19798834  0.28563844  0.44060492     0.35900
C179        C  0.21165615  0.26110576  0.47811367    -0.26300
C180        C  0.23915560  0.24589901  0.47808940     0.02300
C181        C  0.25339565  0.25542553  0.43928273     0.27100
C182        C  0.23950652  0.27933282  0.40090457    -0.25400
N183        N  0.16979075  0.30036969  0.44308855    -0.82800
H184        H  0.20052738  0.25345236  0.50758931     0.12900
C185        C  0.25196502  0.21809034  0.51842092     0.02300
N186        N  0.28178554  0.24046639  0.43892239    -0.81400
H187        H  0.25027950  0.28559107  0.37081091     0.17800
C188        C  0.26085204  0.16937953  0.51143545    -0.26200
C189        C  0.27172637  0.14030896  0.54854196     0.35800
C190        C  0.27285911  0.15971813  0.59370526    -0.20300
C191        C  0.26318450  0.20765286  0.60097979    -0.25500
C192        C  0.25353073  0.23769697  0.56397497     0.27200
H193        H  0.25931512  0.15401942  0.47682636     0.12900
N194        N  0.28198061  0.09138667  0.54064003    -0.82800
H195        H  0.26504835  0.22325747  0.63554317     0.17800
N196        N  0.24656481  0.28818794  0.57401953    -0.81400
H197        H  0.27987981  0.08267848  0.50548787     0.33400
H198        H  0.26951858  0.06623844  0.55622967     0.37900
H199        H  0.26423426  0.30500492  0.59131751     0.33400
H200        H  0.24216119  0.30860107  0.54414375     0.30100
H201        H  0.28922297  0.24992891  0.40785072     0.33400
H202        H  0.29361483  0.26067037  0.46478855     0.30100
H203        H  0.15801388  0.26878633  0.44850074     0.37900
H204        H  0.16922205  0.32418549  0.47145650     0.33400
C205        C  0.30874930  0.69880580  0.23980923    -0.20300
C206        C  0.29931504  0.68814002  0.28293303     0.35900
C207        C  0.28594171  0.64265556  0.28909955    -0.26300
C208        C  0.28200309  0.60745511  0.25332630     0.02300
C209        C  0.29373927  0.61608996  0.21189489     0.27100
C210        C  0.30708465  0.66158524  0.20560830    -0.25400
N211        N  0.30219515  0.72441393  0.31959972    -0.82800
H212        H  0.27711280  0.63585113  0.32102273     0.12900
C213        C  0.26266989  0.56502672  0.25739732     0.02300
N214        N  0.29089166  0.57941056  0.17560278    -0.81400
H215        H  0.31436545  0.66927294  0.17259741     0.17800
C216        C  0.23917965  0.56071283  0.22526526    -0.26200
C217        C  0.21971898  0.52262394  0.22791320     0.35800
C218        C  0.22332682  0.48806270  0.26390675    -0.20300
C219        C  0.24691517  0.49210907  0.29612720    -0.25500
C220        C  0.26661665  0.53041694  0.29330042     0.27200
H221        H  0.23584031  0.58733598  0.19781163     0.12900
N222        N  0.19669293  0.51846474  0.19304384    -0.82800
H223        H  0.24991061  0.46550026  0.32361634     0.17800
N224        N  0.29063576  0.53416156  0.32644827    -0.81400
H225        H  0.20447340  0.51445760  0.16116901     0.33400
H226        H  0.18550233  0.55147662  0.19285183     0.37900
H227        H  0.29043981  0.50599020  0.35064389     0.33400
H228        H  0.30811414  0.52838639  0.30894769     0.30100
H229        H  0.30033123  0.59159263  0.14715030     0.33400
H230        H  0.30167426  0.54795264  0.18767518     0.30100
H231        H  0.32342218  0.72996452  0.32892790     0.37900
H232        H  0.29388382  0.71106335  0.34870448     0.33400
C233        C  0.26312418  0.98902154  0.22248827    -0.20300
C234        C  0.27027320  0.03135880  0.25035970     0.35900
C235        C  0.25040391  0.06789877  0.25587038    -0.26300
C236        C  0.22324167  0.06337104  0.23450310     0.02300
C237        C  0.21565729  0.02094801  0.20738599     0.27100
C238        C  0.23565840  0.98421502  0.20158265    -0.25400
N239        N  0.29756516  0.03732056  0.27388620    -0.82800
H240        H  0.25634824  0.10047135  0.27674954     0.12900
C241        C  0.20378564  0.10506229  0.23930962     0.02300
N242        N  0.18768277  0.01527906  0.18616703    -0.81400
H243        H  0.22970941  0.95165458  0.18074919     0.17800
C244        C  0.19556011  0.13404442  0.20083707    -0.26200
C245        C  0.18233254  0.17984222  0.20567344     0.35800
C246        C  0.17699501  0.19660544  0.24984678    -0.20300
C247        C  0.18295827  0.16537613  0.28764977    -0.25500
C248        C  0.19652359  0.11993913  0.28287347     0.27200
H249        H  0.20101817  0.12233492  0.16737172     0.12900
N250        N  0.17533397  0.21033508  0.16624768    -0.82800
H251        H  0.17895782  0.17810380  0.32162785     0.17800
N252        N  0.20416683  0.08988198  0.32237205    -0.81400
H253        H  0.18080631  0.19286809  0.13640381     0.33400
H254        H  0.15374969  0.21398851  0.16214006     0.37900
H255        H  0.19771319  0.10632436  0.35199911     0.33400
H256        H  0.19337513  0.05626833  0.31734339     0.30100
H257        H  0.18542649  0.98200536  0.16740843     0.33400
H258        H  0.17471200  0.01267719  0.21248421     0.30100
H259        H  0.29579420  0.04025292  0.30915978     0.37900
H260        H  0.30595959  0.07053112  0.26331300     0.33400
C261        C  0.34907520  0.00041603  0.58029675    -0.20300
C262        C  0.34768689  0.94842185  0.57433318     0.35900
C263        C  0.34495596  0.92784895  0.52992881    -0.26300
C264        C  0.34339429  0.95832019  0.49147307     0.02300
C265        C  0.34572518  0.01009117  0.49700615     0.27100
C266        C  0.34867170  0.03072722  0.54150778    -0.25400
N267        N  0.34886987  0.91636105  0.61316679    -0.82800
H268        H  0.34341163  0.88797048  0.52539564     0.12900
C269        C  0.33840250  0.93566071  0.44542113     0.02300
N270        N  0.34442086  0.04134144  0.45737259    -0.81400
H271        H  0.34954901  0.07066362  0.54579460     0.17800
C272        C  0.31168534  0.93747966  0.42211436    -0.26200
C273        C  0.30648737  0.91930032  0.37697740     0.35800
C274        C  0.32839137  0.89881105  0.35499498    -0.20300
C275        C  0.35493643  0.89541534  0.37918766    -0.25500
C276        C  0.36018398  0.91387682  0.42429637     0.27200
H277        H  0.29499446  0.95436517  0.43863092     0.12900
N278        N  0.27938050  0.92428397  0.35283072    -0.82800
H279        H  0.37184235  0.87993391  0.36222942     0.17800
N280        N  0.38758326  0.91177676  0.44835568    -0.81400
H281        H  0.26523553  0.90575583  0.37135354     0.33400
H282        H  0.27429407  0.96188228  0.35222283     0.37900
H283        H  0.40123852  0.89437490  0.42794357     0.33400
H284        H  0.39477460  0.94818168  0.45388690     0.30100
H285        H  0.34604947  0.07866136  0.46739567     0.33400
H286        H  0.36172827  0.03358734  0.44000505     0.30100
H287        H  0.33071347  0.89491191  0.61043240     0.37900
H288        H  0.36567999  0.89251998  0.61156789     0.33400
C289        C  0.32841681  0.03905480  0.85521463    -0.20300
C290        C  0.35433640  0.04615468  0.88147496     0.35900
C291        C  0.35797249  0.02967999  0.92710699    -0.26300
C292        C  0.33615202  0.00672085  0.94690899     0.02300
C293        C  0.30983476  0.00208550  0.92142902     0.27100
C294        C  0.30616417  0.01879944  0.87589796    -0.25400
N295        N  0.37686566  0.06965793  0.86149410    -0.82800
H296        H  0.37795844  0.03410325  0.94716921     0.12900
C297        C  0.34111618  0.98648906  0.99395424     0.02300
N298        N  0.28724097  0.97881007  0.94140150    -0.81400
H299        H  0.28629844  0.01340995  0.85567491     0.17800
C300        C  0.32578591  0.00502135  0.02827111    -0.26200
C301        C  0.32785741  0.98397256  0.07200079     0.35800
C302        C  0.34596089  0.94370237  0.08221426    -0.20300
C303        C  0.36191404  0.92600976  0.04807095    -0.25500
C304        C  0.35967328  0.94703082  0.00399305     0.27200
H305        H  0.31151827  0.03531474  0.02065591     0.12900
N306        N  0.31058454  0.00246126  0.10520311    -0.82800
H307        H  0.37577136  0.89512115  0.05548602     0.17800
N308        N  0.37563700  0.92776103  0.96907900    -0.81400
H309        H  0.31499126  0.04016306  0.11070562     0.33400
H310        H  0.28987411  0.99887618  0.09134587     0.37900
H311        H  0.38836166  0.89893952  0.98203422     0.34200
H312        H  0.36173618  0.91235605  0.94290338     0.30100
H313        H  0.26929144  0.97839972  0.91820244     0.33400
H314        H  0.29256555  0.94180393  0.94745004     0.30100
H315        H  0.37091944  0.10600334  0.85362932     0.37900
H316        H  0.39448005  0.07210798  0.88536299     0.33400
C317        C  0.22090112  0.66021461  0.88187126    -0.20300
C318        C  0.22819532  0.63675127  0.92404104     0.35900
C319        C  0.23693792  0.66568613  0.96316269    -0.26300
C320        C  0.23711154  0.71771099  0.96118820     0.02300
C321        C  0.23009696  0.74095704  0.91847865     0.27100
C322        C  0.22279577  0.71176770  0.87901849    -0.25400
N323        N  0.22562461  0.58383033  0.92710444    -0.82800
H324        H  0.24307473  0.64765151  0.99549855     0.12900
C325        C  0.24581343  0.74724203  0.00356032     0.02300
N326        N  0.22919758  0.79408287  0.91572084    -0.81400
H327        H  0.21624418  0.72948813  0.84666509     0.17800
C328        C  0.26622088  0.78386489  0.00172352    -0.26200
C329        C  0.27676819  0.81006337  0.04110228     0.35800
C330        C  0.26805771  0.79776315  0.08423684    -0.20300
C331        C  0.24646735  0.76323569  0.08606155    -0.25500
C332        C  0.23492695  0.73824134  0.04584688     0.27200
H333        H  0.27481238  0.79126337  0.96971038     0.12900
N334        N  0.29712770  0.84821945  0.03734357    -0.82800
H335        H  0.23962617  0.75386997  0.11902465     0.17800
N336        N  0.21271049  0.70306755  0.04791129    -0.81400
H337        H  0.31408722  0.83255192  0.02327574     0.33400
H338        H  0.28847800  0.87483326  0.01454205     0.37900
H339        H  0.20724364  0.70062945  0.08148644     0.33400
H340        H  0.19535190  0.71660009  0.02778166     0.30100
H341        H  0.22390087  0.80510857  0.88183356     0.33400
H342        H  0.21337685  0.80631093  0.93474673     0.30100
H343        H  0.23961510  0.56795726  0.90637213     0.37900
H344        H  0.23147159  0.57227729  0.96071151     0.33400
C345        C  0.14649522  0.49669640  0.90200795    -0.20300
C346        C  0.15025211  0.52430837  0.94370501     0.35900
C347        C  0.15432036  0.49921825  0.98572044    -0.26300
C348        C  0.15431777  0.44733634  0.98717682     0.02300
C349        C  0.14994910  0.41964486  0.94592757     0.27100
C350        C  0.14621407  0.44456948  0.90374839    -0.25400
N351        N  0.15110016  0.57755934  0.94339050    -0.82800
H352        H  0.15749549  0.52022040  0.01769954     0.12900
C353        C  0.15854424  0.42302843  0.03256423     0.02300
N354        N  0.14972748  0.36641954  0.94707450    -0.81400
H355        H  0.14342644  0.42314219  0.87199219     0.17800
C356        C  0.13596392  0.40005188  0.05011329    -0.26200
C357        C  0.13808103  0.38353915  0.09565830     0.35800
C358        C  0.16325988  0.38967798  0.12418345    -0.20300
C359        C  0.18645210  0.40937011  0.10548136    -0.25500
C360        C  0.18427816  0.42635967  0.05989357     0.27200
H361        H  0.11625097  0.39690963  0.02901425     0.12900
N362        N  0.11443637  0.36139859  0.11316831    -0.82800
H363        H  0.20582514  0.41422329  0.12722711     0.17800
N364        N  0.20777547  0.44850194  0.04160652    -0.81400
H365        H  0.10835963  0.33046769  0.09259741     0.33400
H366        H  0.09822464  0.38692996  0.10999483     0.37900
H367        H  0.22509214  0.44861292  0.06616150     0.33400
H368        H  0.21273852  0.42606299  0.01427194     0.30100
H369        H  0.14619220  0.35154396  0.91376957     0.33400
H370        H  0.16953816  0.35507620  0.96028497     0.30100
H371        H  0.13101908  0.58974867  0.93292720     0.37900
H372        H  0.15615654  0.59182981  0.97664170     0.33400
C373        C  0.15772484  0.53630701  0.62306716    -0.20300
C374        C  0.17925862  0.52334765  0.59614280     0.35900
C375        C  0.17268139  0.51161325  0.54927179    -0.26300
C376        C  0.14522174  0.51322424  0.52865836     0.02300
C377        C  0.12392777  0.52820837  0.55496193     0.27100
C378        C  0.13035881  0.53924573  0.60194947    -0.25400
N379        N  0.20741351  0.51942175  0.61677939    -0.82800
H380        H  0.18894580  0.49967060  0.52892838     0.12900
C381        C  0.13899886  0.49524642  0.48052246     0.02300
N382        N  0.09584470  0.53152116  0.53390701    -0.81400
H383        H  0.11384592  0.54977082  0.62235411     0.17800
C384        C  0.12175191  0.45359917  0.47157741    -0.26200
C385        C  0.11849949  0.43096290  0.42789986     0.35800
C386        C  0.13285078  0.45011635  0.39225659    -0.20300
C387        C  0.14861791  0.49389359  0.40060435    -0.25500
C388        C  0.15186057  0.51657239  0.44438133     0.27200
H389        H  0.11164481  0.43726333  0.49919850     0.12900
N390        N  0.10106994  0.38795730  0.42037009    -0.82800
H391        H  0.15953317  0.50934614  0.37351590     0.17800
N392        N  0.16873347  0.56040575  0.45267849    -0.81400
H393        H  0.08111833  0.39743905  0.42783456     0.33400
H394        H  0.10862936  0.36077879  0.44350388     0.37900
H395        H  0.17693144  0.57121310  0.42261196     0.33400
H396        H  0.15578419  0.58904408  0.46155413     0.30100
H397        H  0.08261818  0.54286205  0.55803548     0.33400
H398        H  0.09535434  0.55924692  0.50917431     0.30100
H399        H  0.21459160  0.55529161  0.62533635     0.37900
H400        H  0.22020277  0.50570567  0.59293734     0.33400
C401        C  0.17645530  0.73842115  0.73285547    -0.20300
C402        C  0.18451084  0.74910806  0.68878399     0.35900
C403        C  0.19857074  0.79382921  0.68183051    -0.26300
C404        C  0.20434464  0.82858576  0.71763028     0.02300
C405        C  0.19409317  0.82017733  0.76030280     0.27100
C406        C  0.18003976  0.77540579  0.76738721    -0.25400
N407        N  0.17933625  0.71368440  0.65170267    -0.82800
H408        H  0.20606962  0.80080654  0.64884170     0.12900
C409        C  0.22366313  0.87070777  0.71165395     0.02300
N410        N  0.19917356  0.85611937  0.79694774    -0.81400
H411        H  0.17382887  0.76788615  0.80117367     0.17800
C412        C  0.21371031  0.91933681  0.70781859    -0.26200
C413        C  0.23193273  0.95994792  0.70448406     0.35800
C414        C  0.26093178  0.95175963  0.70624072    -0.20300
C415        C  0.27056311  0.90264313  0.70877162    -0.25500
C416        C  0.25232692  0.86226500  0.71147693     0.27200
H417        H  0.19163391  0.92558129  0.70769217     0.12900
N418        N  0.22105291  0.00931772  0.70073155    -0.82800
H419        H  0.29260226  0.89562577  0.70960722     0.17800
N420        N  0.26287100  0.81261173  0.71500192    -0.81400
H421        H  0.19958393  0.00896647  0.70222193     0.33400
H422        H  0.22416695  0.02205868  0.66801918     0.37900
H423        H  0.28438448  0.81254296  0.71403319     0.33400
H424        H  0.25920286  0.79926333  0.74725869     0.30100
H425        H  0.18992127  0.84487189  0.82588446     0.33400
H426        H  0.22057903  0.85753299  0.80647865     0.30100
H427        H  0.15782341  0.70984842  0.64462906     0.37900
H428        H  0.18670098  0.72696920  0.62176125     0.33400
C429        C  0.22984953  0.45327464  0.77234965    -0.20300
C430        C  0.25870828  0.46191978  0.77176970     0.35900
C431        C  0.27680848  0.42126035  0.77055499    -0.26300
C432        C  0.26685011  0.37236054  0.77094739     0.02300
C433        C  0.23835782  0.36379877  0.77395057     0.27100
C434        C  0.22026853  0.40417635  0.77472677    -0.25400
N435        N  0.26950900  0.51157493  0.77080909    -0.82800
H436        H  0.29876524  0.42762397  0.76871664     0.12900
C437        C  0.28585812  0.33003050  0.76546151     0.02300
N438        N  0.22774934  0.31396712  0.77480583    -0.81400
H439        H  0.19833690  0.39705501  0.77607215     0.17800
C440        C  0.28968657  0.29461953  0.80018622    -0.26200
C441        C  0.30322406  0.24965437  0.79295192     0.35800
C442        C  0.31315275  0.23977738  0.74989240    -0.20300
C443        C  0.31143486  0.27720629  0.71668213    -0.25500
C444        C  0.29763943  0.32202373  0.72385207     0.27200
H445        H  0.28092861  0.30121071  0.83232769     0.12900
N446        N  0.30582383  0.21308109  0.82846686    -0.82800
H447        H  0.31880010  0.26993051  0.68352122     0.17800
N448        N  0.29416921  0.35819864  0.68804912    -0.81400
H449        H  0.29716510  0.22579966  0.85769617     0.33400
H450        H  0.32699993  0.20813474  0.83819032     0.37900
H451        H  0.30406037  0.34677417  0.65963165     0.33400
H452        H  0.27299285  0.36009903  0.67687043     0.30100
H453        H  0.20639459  0.31399802  0.77745694     0.33400
H454        H  0.23048730  0.29707630  0.74322936     0.30100
H455        H  0.26720558  0.52818381  0.80267683     0.37900
H456        H  0.29083120  0.51117060  0.76787738     0.33400
C457        C  0.06623624  0.34403089  0.24635668    -0.20300
C458        C  0.04959006  0.37991490  0.22231643     0.35900
C459        C  0.02067481  0.37670394  0.22080462    -0.26300
C460        C  0.00792734  0.33844506  0.24308995     0.02300
C461        C  0.02434102  0.30104410  0.26517032     0.27100
C462        C  0.05336200  0.30396987  0.26620439    -0.25400
N463        N  0.06190857  0.41992228  0.19966878    -0.82800
H464        H  0.00806898  0.40476614  0.20269176     0.12900
C465        C  0.97736939  0.33857193  0.24297728     0.02300
N466        N  0.01153974  0.26124812  0.28770674    -0.81400
H467        H  0.06596804  0.27624286  0.28475650     0.17800
C468        C  0.96177844  0.29841008  0.22329346    -0.26200
C469        C  0.93264679  0.29949537  0.21814771     0.35800
C470        C  0.91886093  0.34171979  0.23359197    -0.20300
C471        C  0.93464304  0.38089227  0.25520968    -0.25500
C472        C  0.96372429  0.37970079  0.26016863     0.27200
H473        H  0.97243131  0.26699325  0.21004302     0.12900
N474        N  0.91725683  0.25877087  0.19561326    -0.82800
H475        H  0.92426369  0.41306297  0.26762984     0.17800
N476        N  0.97951819  0.42034993  0.28203652    -0.81400
H477        H  0.93056008  0.23008624  0.18816582     0.33400
H478        H  0.90813919  0.27139280  0.16393188     0.37900
H479        H  0.96635267  0.44792511  0.29240808     0.33400
H480        H  0.99052642  0.40694246  0.31195287     0.30100
H481        H  0.02653441  0.23674942  0.30220160     0.33400
H482        H  0.00196150  0.27663718  0.31494800     0.30100
H483        H  0.05538724  0.45322611  0.21353697     0.37900
H484        H  0.05439419  0.41842409  0.16482572     0.33400
C485        C  0.42222978  0.08078577  0.72754074    -0.20300
C486        C  0.43769384  0.11983260  0.75052129     0.35900
C487        C  0.46697400  0.11735899  0.75616745    -0.26300
C488        C  0.48114920  0.07701600  0.73875184     0.02300
C489        C  0.46559134  0.03855299  0.71495556     0.27100
C490        C  0.43646393  0.04058252  0.71018851    -0.25400
N491        N  0.42370151  0.16127908  0.76874363    -0.82800
H492        H  0.47880731  0.14669589  0.77488157     0.12900
C493        C  0.51215874  0.07471874  0.74644926     0.02300
N494        N  0.47944273  0.99780375  0.69516380    -0.81400
H495        H  0.42475393  0.01085971  0.69179752     0.17800
C496        C  0.52481930  0.03243502  0.76657092    -0.26200
C497        C  0.55388105  0.02857025  0.77462270     0.35800
C498        C  0.57089864  0.06813637  0.76250301    -0.20300
C499        C  0.55823207  0.11055929  0.74264731    -0.25500
C500        C  0.52913441  0.11404577  0.73403813     0.27200
H501        H  0.51187963  0.00249029  0.77677197     0.12900
N502        N  0.56603964  0.98505932  0.79608484    -0.82800
H503        H  0.57112741  0.14091682  0.73317379     0.17800
N504        N  0.51677878  0.15713649  0.71220414    -0.81400
H505        H  0.55069591  0.95922990  0.80207793     0.33400
H506        H  0.57575868  0.99576179  0.82834663     0.37900
H507        H  0.53206101  0.18273900  0.70541079     0.33400
H508        H  0.50674306  0.14584336  0.68034952     0.30100
H509        H  0.46504240  0.97254563  0.67896777     0.33400
H510        H  0.49062942  0.01204661  0.66950712     0.30100
H511        H  0.41231098  0.14802319  0.79456659     0.37900
H512        H  0.43807510  0.18686645  0.78448070     0.33400
C513        C  0.76825561  0.29759613  0.08616810    -0.20300
C514        C  0.77760646  0.30943099  0.04327594     0.35900
C515        C  0.76638168  0.28420540  0.00349307    -0.26300
C516        C  0.74494592  0.24941424  0.00496653     0.02300
C517        C  0.73319852  0.24232924  0.04678967     0.27100
C518        C  0.74524003  0.26609578  0.08722768    -0.25400
N519        N  0.79935159  0.34552513  0.04060341    -0.82800
H520        H  0.77537697  0.29010822  0.97158665     0.12900
C521        C  0.73683592  0.21791481  0.96355042     0.02300
N522        N  0.70971090  0.20980621  0.04824080    -0.81400
H523        H  0.73768696  0.25773241  0.11989204     0.17800
C524        C  0.73613142  0.16619198  0.96833007    -0.26200
C525        C  0.72837406  0.13479510  0.93069901     0.35800
C526        C  0.72207681  0.15549310  0.88672317    -0.20300
C527        C  0.72454806  0.20676289  0.88120644    -0.25500
C528        C  0.73121319  0.23841564  0.91929163     0.27200
H529        H  0.74129983  0.14995380  0.00182361     0.12900
N530        N  0.72634956  0.08243286  0.93861009    -0.82800
H531        H  0.71893837  0.22250253  0.84760573     0.17800
N532        N  0.73104570  0.29124583  0.91343866    -0.81400
H533        H  0.74603917  0.07029569  0.95159544     0.33400
H534        H  0.72126875  0.06264007  0.90794496     0.37900
H535        H  0.72640014  0.30013271  0.87878096     0.33400
H536        H  0.71501223  0.30554310  0.93086070     0.30100
H537        H  0.70374836  0.20840240  0.08155412     0.33400
H538        H  0.69309250  0.22509748  0.02753735     0.30100
H539        H  0.79180923  0.37979716  0.05054866     0.37900
H540        H  0.80410259  0.34928861  0.00674079     0.33400
C541        C  0.41971268  0.84598639  0.22570387    -0.20300
C542        C  0.43388034  0.81235904  0.19926886     0.35900
C543        C  0.46298472  0.81092830  0.20495461    -0.26300
C544        C  0.47823305  0.84245687  0.23669671     0.02300
C545        C  0.46419096  0.87474749  0.26449469     0.27100
C546        C  0.43502888  0.87665195  0.25833079    -0.25400
N547        N  0.41888195  0.78125678  0.16508407    -0.82800
H548        H  0.47376483  0.78602167  0.18363813     0.12900
C549        C  0.50892478  0.84265409  0.23939421     0.02300
N550        N  0.47967298  0.90564134  0.29856152    -0.81400
H551        H  0.42419783  0.90226839  0.27889332     0.17800
C552        C  0.52251080  0.88278057  0.22137252    -0.26200
C553        C  0.55158937  0.88539126  0.22484861     0.35800
C554        C  0.56755556  0.84723307  0.24699662    -0.20300
C555        C  0.55377098  0.80609933  0.26341025    -0.25500
C556        C  0.52459832  0.80364066  0.26011092     0.27200
H557        H  0.51043800  0.91251387  0.20487693     0.12900
N558        N  0.56475131  0.92696449  0.20590244    -0.82800
H559        H  0.56574871  0.77678612  0.28073732     0.17800
N560        N  0.51079853  0.76235558  0.27869832    -0.81400
H561        H  0.55796603  0.92837379  0.17080041     0.33400
H562        H  0.55816168  0.95919048  0.22160559     0.37900
H563        H  0.52528419  0.73673024  0.29279686     0.33400
H564        H  0.50040041  0.77577606  0.30584255     0.30100
H565        H  0.46625755  0.92726138  0.31612885     0.33400
H566        H  0.49000429  0.88232522  0.32289774     0.30100
H567        H  0.42567245  0.78937646  0.13319468     0.37900
H568        H  0.42389267  0.74443648  0.17265945     0.33400
C569        C  0.67960173  0.69780739  0.24575203    -0.20300
C570        C  0.67933595  0.65894302  0.27776383     0.35900
C571        C  0.69352528  0.61481777  0.26998134    -0.26300
C572        C  0.70758035  0.60854470  0.23079316     0.02300
C573        C  0.70585980  0.64535879  0.19696376     0.27100
C574        C  0.69170790  0.68948509  0.20461954    -0.25400
N575        N  0.66650801  0.66559186  0.31956979    -0.82800
H576        H  0.69477975  0.58602664  0.29561276     0.12900
C577        C  0.72662335  0.56611858  0.22822276     0.02300
N578        N  0.71973979  0.63886591  0.15617815    -0.81400
H579        H  0.69174763  0.71886952  0.17969437     0.17800
C580        C  0.72034308  0.52816604  0.19558913    -0.26200
C581        C  0.73849198  0.48817613  0.19213013     0.35800
C582        C  0.76354562  0.48633713  0.22145339    -0.20300
C583        C  0.76978940  0.52473997  0.25386661    -0.25500
C584        C  0.75158763  0.56451735  0.25759111     0.27200
H585        H  0.70125667  0.52959300  0.17276119     0.12900
N586        N  0.73156274  0.45001430  0.15834278    -0.82800
H587        H  0.78882630  0.52349480  0.27682550     0.17800
N588        N  0.75833795  0.60345461  0.29100037    -0.81400
H589        H  0.71251650  0.43442862  0.16455517     0.33400
H590        H  0.72906591  0.46642095  0.12598648     0.37900
H591        H  0.77729447  0.59649388  0.31029610     0.33400
H592        H  0.76099245  0.63614200  0.27309856     0.30100
H593        H  0.71638605  0.66936206  0.13464421     0.33400
H594        H  0.74107751  0.63784732  0.16625405     0.30100
H595        H  0.64512151  0.66818699  0.31050235     0.37900
H596        H  0.66946433  0.63441982  0.34034990     0.33400
C597        C  0.72489543  0.99022941  0.28299928    -0.20300
C598        C  0.71637758  0.03911252  0.27166011     0.35900
C599        C  0.73650787  0.07601235  0.26785909    -0.26300
C600        C  0.76484164  0.06561804  0.27590329     0.02300
C601        C  0.77347483  0.01811199  0.29013923     0.27100
C602        C  0.75339979  0.98080673  0.29368033    -0.25400
N603        N  0.68742276  0.05112171  0.26330074    -0.82800
H604        H  0.73012598  0.11304187  0.25765423     0.12900
C605        C  0.78481401  0.10497193  0.26672192     0.02300
N606        N  0.80252921  0.00782325  0.30009118    -0.81400
H607        H  0.76016450  0.94377152  0.30302422     0.17800
C608        C  0.79262514  0.13994428  0.30154071    -0.26200
C609        C  0.80541322  0.18481831  0.29149627     0.35800
C610        C  0.81014809  0.19484157  0.24563240    -0.20300
C611        C  0.80502172  0.15760759  0.21188215    -0.25500
C612        C  0.79218637  0.11287461  0.22174418     0.27200
H613        H  0.78716688  0.13350910  0.33600706     0.12900
N614        N  0.81235009  0.22134622  0.32713226    -0.82800
H615        H  0.80880070  0.16486317  0.17667477     0.17800
N616        N  0.78577182  0.07759328  0.18482381    -0.81400
H617        H  0.80737912  0.20839101  0.35884804     0.33400
H618        H  0.83387728  0.22641400  0.33018487     0.37900
H619        H  0.77100136  0.09354247  0.16093295     0.33400
H620        H  0.77694739  0.04515374  0.19608616     0.30100
H621        H  0.80541977  0.97114293  0.31051646     0.33400
H622        H  0.81175247  0.01128760  0.26949797     0.30100
H623        H  0.67868816  0.04665416  0.29422661     0.37900
H624        H  0.68485147  0.08836586  0.25448783     0.33400
C625        C  0.66819009  0.89099629  0.13274049    -0.20300
C626        C  0.64375991  0.88127267  0.10317545     0.35900
C627        C  0.64209849  0.89707349  0.05751120    -0.26300
C628        C  0.66429641  0.92238512  0.04124236     0.02300
C629        C  0.68932119  0.92935597  0.06974268     0.27100
C630        C  0.69113369  0.91314600  0.11538313    -0.25400
N631        N  0.62050608  0.85671977  0.12009266    -0.82800
H632        H  0.62304931  0.89156790  0.03504196     0.12900
C633        C  0.66010955  0.94512273  0.99560858     0.02300
N634        N  0.71229304  0.95453017  0.05261802    -0.81400
H635        H  0.70984330  0.92058091  0.13818061     0.17800
C636        C  0.65658082  0.99645945  0.99306457    -0.26200
C637        C  0.65219737  0.01998071  0.95045358     0.35800
C638        C  0.65121051  0.99111540  0.90953847    -0.20300
C639        C  0.65436771  0.93941154  0.91250467    -0.25500
C640        C  0.65878133  0.91613440  0.95522136     0.27200
H641        H  0.65747760  0.01823805  0.02459877     0.12900
N642        N  0.64942590  0.07294987  0.94888536    -0.82800
H643        H  0.65363129  0.91704319  0.88136003     0.17800
N644        N  0.66205808  0.86331746  0.95788153    -0.81400
H645        H  0.64922942  0.08793083  0.98200650     0.33400
H646        H  0.66722421  0.08712096  0.93636244     0.37900
H647        H  0.66037211  0.84731519  0.92494495     0.33400
H648        H  0.68222792  0.85644195  0.97271533     0.30100
H649        H  0.72907434  0.95718136  0.07811561     0.33400
H650        H  0.71883462  0.93269075  0.02605528     0.30100
H651        H  0.62675881  0.82091040  0.12942176     0.37900
H652        H  0.60409130  0.85284854  0.09405980     0.33400
C653        C  0.65811086  0.02650680  0.63058277    -0.20300
C654        C  0.63080871  0.01753637  0.60987731     0.35900
C655        C  0.62648297  0.00356313  0.56357035    -0.26300
C656        C  0.64883004  0.99854177  0.53740021     0.02300
C657        C  0.67601212  0.00941689  0.55700415     0.27100
C658        C  0.68040111  0.02379331  0.60352955    -0.25400
N659        N  0.60736510  0.02220790  0.63570763    -0.82800
H660        H  0.60558259  0.99553042  0.54813825     0.12900
C661        C  0.64349706  0.97860041  0.49034983     0.02300
N662        N  0.69900261  0.00434218  0.52995499    -0.81400
H663        H  0.70137124  0.03071507  0.61911596     0.17800
C664        C  0.64631228  0.00960849  0.45316221    -0.26200
C665        C  0.64221157  0.99115559  0.40789855     0.35800
C666        C  0.63550882  0.94035517  0.40015074    -0.20300
C667        C  0.63157373  0.91009619  0.43774041    -0.25500
C668        C  0.63572386  0.92864957  0.48281062     0.27200
H669        H  0.65193745  0.04818126  0.45961737     0.12900
N670        N  0.64530856  0.02360128  0.37009496    -0.82800
H671        H  0.62659997  0.87114280  0.43226523     0.17800
N672        N  0.63286095  0.89672816  0.52110025    -0.81400
H673        H  0.65079089  0.05938457  0.38196069     0.33400
H674        H  0.62590292  0.02628377  0.35099019     0.37900
H675        H  0.62692931  0.86100703  0.50961917     0.33400
H676        H  0.65243078  0.89358113  0.53958727     0.30100
H677        H  0.71762033  0.01386370  0.54953997     0.33400
H678        H  0.70045656  0.96689009  0.52100409     0.30100
H679        H  0.59694141  0.98810616  0.63449604     0.37900
H680        H  0.59393986  0.04842673  0.61969698     0.33400
C681        C  0.92124858  0.57370346  0.73249484    -0.20300
C682        C  0.93533792  0.61499404  0.75427927     0.35900
C683        C  0.96460234  0.61674955  0.75831273    -0.26300
C684        C  0.97996176  0.57774006  0.74169428     0.02300
C685        C  0.96594918  0.53618228  0.72067588     0.27100
C686        C  0.93680052  0.53450406  0.71643790    -0.25400
N687        N  0.91996074  0.65439750  0.77298420    -0.82800
H688        H  0.97553524  0.64822793  0.77513093     0.12900
C689        C  0.01077277  0.57956776  0.74813269     0.02300
N690        N  0.98144580  0.49599781  0.70347813    -0.81400
H691        H  0.92613999  0.50281061  0.69950452     0.17800
C692        C  0.02485191  0.54759859  0.77979858    -0.26200
C693        C  0.05398241  0.54699237  0.78636326     0.35800
C694        C  0.06938331  0.57870906  0.76031674    -0.20300
C695        C  0.05533639  0.61142025  0.72918181    -0.25500
C696        C  0.02607331  0.61174402  0.72244325     0.27200
H697        H  0.01298560  0.52316068  0.79959343     0.12900
N698        N  0.06803554  0.51484796  0.81995533    -0.82800
H699        H  0.06721397  0.63574143  0.70931015     0.17800
N700        N  0.01181662  0.64392892  0.68919187    -0.81400
H701        H  0.05373370  0.49382283  0.83604949     0.33400
H702        H  0.07860174  0.53725100  0.84556584     0.37900
H703        H  0.02604345  0.66517652  0.67315368     0.33400
H704        H  0.00125374  0.62157870  0.66352783     0.30100
H705        H  0.96807239  0.46805054  0.68918840     0.33400
H706        H  0.99191634  0.50967937  0.67671470     0.30100
H707        H  0.90966809  0.63959475  0.79947126     0.37900
H708        H  0.93342972  0.68182718  0.78802276     0.33400
C709        C  0.71288631  0.79183980  0.40740006    -0.20300
C710        C  0.74072832  0.77563854  0.41001910     0.35900
C711        C  0.75230807  0.75094215  0.44973454    -0.26300
C712        C  0.73675690  0.74193085  0.48690855     0.02300
C713        C  0.70974572  0.76115479  0.48542147     0.27100
C714        C  0.69823773  0.78602150  0.44624117    -0.25400
N715        N  0.75693764  0.78293355  0.37215935    -0.82800
H716        H  0.77344542  0.73769296  0.45135245     0.12900
C717        C  0.74843796  0.71052110  0.52599000     0.02300
N718        N  0.69332458  0.75351371  0.52276999    -0.81400
H719        H  0.67707846  0.79896037  0.44573806     0.17800
C720        C  0.74841497  0.72774970  0.57161585    -0.26200
C721        C  0.75941197  0.69906238  0.60892297     0.35800
C722        C  0.77112380  0.65256079  0.60083210    -0.20300
C723        C  0.77104582  0.63509236  0.55540216    -0.25500
C724        C  0.75936998  0.66306464  0.51799564     0.27200
H725        H  0.74042711  0.76422920  0.57835989     0.12900
N726        N  0.76001806  0.71848484  0.65483924    -0.82800
H727        H  0.78042328  0.59962068  0.54910851     0.17800
N728        N  0.75859991  0.64346429  0.47191476    -0.81400
H729        H  0.73960405  0.72572416  0.66131474     0.33400
H730        H  0.77085388  0.75217271  0.65646846     0.37900
H731        H  0.76759546  0.60834472  0.47193103     0.33400
H732        H  0.73775496  0.63876202  0.45920480     0.30100
H733        H  0.68751230  0.78821886  0.53468987     0.33400
H734        H  0.67528615  0.73427579  0.51008786     0.30100
H735        H  0.75997294  0.82109325  0.36911971     0.37900
H736        H  0.77664887  0.76751853  0.37915309     0.33400
C737        C  0.82698146  0.38598520  0.36049096    -0.20300
C738        C  0.85322326  0.38139267  0.38617086     0.35900
C739        C  0.85649537  0.39665303  0.43243062    -0.26300
C740        C  0.83414364  0.41635731  0.45303112     0.02300
C741        C  0.80764020  0.41830516  0.42839831     0.27100
C742        C  0.80421552  0.40252564  0.38228066    -0.25400
N743        N  0.87657075  0.36278276  0.36478744    -0.82800
H744        H  0.87675083  0.39522865  0.45196465     0.12900
C745        C  0.83936812  0.43984324  0.49870564     0.02300
N746        N  0.78473121  0.43866801  0.44974195    -0.81400
H747        H  0.78413877  0.40619681  0.36254585     0.17800
C748        C  0.84369291  0.49111743  0.50129278    -0.26200
C749        C  0.84770418  0.51593278  0.54388799     0.35800
C750        C  0.84707193  0.48851275  0.58473738    -0.20300
C751        C  0.84355974  0.43665931  0.58173517    -0.25500
C752        C  0.83962674  0.41206766  0.53899633     0.27200
H753        H  0.84358856  0.51187442  0.46976491     0.12900
N754        N  0.85122993  0.56888430  0.54545199    -0.82800
H755        H  0.84315612  0.41530522  0.61280589     0.17800
N756        N  0.83553075  0.35926690  0.53623055    -0.81400
H757        H  0.87165352  0.57638372  0.55911872     0.33400
H758        H  0.84918245  0.58338484  0.51227759     0.37900
H759        H  0.83645560  0.34427321  0.56916121     0.33400
H760        H  0.81543790  0.35246352  0.52061541     0.30100
H761        H  0.76675077  0.43844039  0.42661117     0.33400
H762        H  0.78080560  0.41533026  0.47663015     0.30100
H763        H  0.87218215  0.32593851  0.35501554     0.37900
H764        H  0.89436149  0.36238235  0.38832299     0.33400
C765        C  0.82764718  0.52518593  0.85914139    -0.20300
C766        C  0.85287792  0.53437402  0.88667269     0.35900
C767        C  0.85608478  0.51751852  0.93207090    -0.26300
C768        C  0.83458069  0.49180040  0.95010410     0.02300
C769        C  0.80913938  0.48356879  0.92300129     0.27100
C770        C  0.80578378  0.50098336  0.87776537    -0.25400
N771        N  0.87511101  0.56050200  0.86826408    -0.82800
H772        H  0.87545041  0.52404242  0.95343966     0.12900
C773        C  0.83906664  0.47331720  0.99746660     0.02300
N774        N  0.78719816  0.45640550  0.94117991    -0.81400
H775        H  0.78657853  0.49347947  0.85624869     0.17800
C776        C  0.82432120  0.49470556  0.03116180    -0.26200
C777        C  0.82747499  0.47764819  0.07648933     0.35800
C778        C  0.84571854  0.43773724  0.08806683    -0.20300
C779        C  0.86080947  0.41702864  0.05408841    -0.25500
C780        C  0.85759300  0.43436927  0.00882632     0.27200
H781        H  0.81016513  0.52474378  0.02185922     0.12900
N782        N  0.81134254  0.49949705  0.11000727    -0.82800
H783        H  0.87464111  0.38633299  0.06253746     0.17800
N784        N  0.87255323  0.41196124  0.97406959    -0.81400
H785        H  0.79748816  0.52552431  0.09477907     0.33400
H786        H  0.82503816  0.51926425  0.13363207     0.37900
H787        H  0.88540226  0.38380736  0.98809146     0.33400
H788        H  0.85800955  0.39502827  0.94977697     0.30100
H789        H  0.76986159  0.45353830  0.91677527     0.33400
H790        H  0.79420150  0.42030052  0.94738886     0.30100
H791        H  0.86822630  0.59638178  0.86057482     0.37900
H792        H  0.89224950  0.56410905  0.89298943     0.33400
C793        C  0.81412696  0.72864825  0.75776738    -0.20300
C794        C  0.80106343  0.73764057  0.79824446     0.35900
C795        C  0.78843044  0.78363306  0.80464350    -0.26300
C796        C  0.78879487  0.82113659  0.77196118     0.02300
C797        C  0.80443881  0.81432658  0.73431806     0.27100
C798        C  0.81718592  0.76828564  0.72783029    -0.25400
N799        N  0.79942797  0.69931403  0.83162527    -0.82800
H800        H  0.77688629  0.78940446  0.83405936     0.12900
C801        C  0.76952930  0.86375234  0.77422396     0.02300
N802        N  0.80590358  0.85304931  0.70132867    -0.81400
H803        H  0.82745785  0.76215339  0.69708716     0.17800
C804        C  0.77971367  0.91243060  0.78057534    -0.26200
C805        C  0.76149745  0.95311185  0.78166544     0.35800
C806        C  0.73237911  0.94484654  0.77542719    -0.20300
C807        C  0.72251805  0.89571408  0.76981023    -0.25500
C808        C  0.74062864  0.85542535  0.76888084     0.27200
H809        H  0.80195419  0.91861643  0.78480102     0.12900
N810        N  0.77257690  0.00247911  0.78837348    -0.82800
H811        H  0.70038663  0.88844417  0.76527682     0.17800
N812        N  0.72974324  0.80590621  0.76163071    -0.81400
H813        H  0.79424936  0.00211878  0.79044687     0.33400
H814        H  0.76754519  0.01526928  0.82035705     0.37900
H815        H  0.70805295  0.80592194  0.75862660     0.33400
H816        H  0.73547139  0.79296511  0.73012871     0.30100
H817        H  0.81830320  0.84227848  0.67579189     0.33400
H818        H  0.78591250  0.85812926  0.68492200     0.30100
H819        H  0.81968049  0.69160415  0.84555352     0.37900
H820        H  0.78877139  0.71168204  0.85886205     0.33400
C821        C  0.76095657  0.44118530  0.71359769    -0.20300
C822        C  0.76913447  0.39105910  0.71197685     0.35900
C823        C  0.74944773  0.35314725  0.71420850    -0.26300
C824        C  0.72149498  0.36375291  0.71808729     0.02300
C825        C  0.71301360  0.41359953  0.71935558     0.27100
C826        C  0.73280261  0.45185402  0.71686264    -0.25400
N827        N  0.79743195  0.37823857  0.70785847    -0.82800
H828        H  0.75615290  0.31491907  0.71351265     0.12900
C829        C  0.70198679  0.32155982  0.72203715     0.02300
N830        N  0.68444246  0.42509365  0.72336589    -0.81400
H831        H  0.72631799  0.49011329  0.71858677     0.17800
C832        C  0.68993310  0.31481565  0.76311696    -0.26200
C833        C  0.67650425  0.26995804  0.77191282     0.35800
C834        C  0.67555928  0.23071510  0.73901834    -0.20300
C835        C  0.68523508  0.23973973  0.69613660    -0.25500
C836        C  0.69835044  0.28471981  0.68733461     0.27200
H837        H  0.69251352  0.34346023  0.78954805     0.12900
N838        N  0.66571751  0.26309435  0.81540189    -0.82800
H839        H  0.68412581  0.21044003  0.67032267     0.17800
N840        N  0.70924747  0.29236852  0.64405897    -0.81400
H841        H  0.66931117  0.29459996  0.83640719     0.33400
H842        H  0.64418264  0.25919606  0.80886050     0.37900
H843        H  0.70514934  0.26158443  0.62229310     0.33400
H844        H  0.69859818  0.32214955  0.62814044     0.30100
H845        H  0.68160782  0.46345604  0.72405205     0.33400
H846        H  0.67274481  0.41159841  0.69370027     0.30100
H847        H  0.80452937  0.35669951  0.73611130     0.37900
H848        H  0.79797637  0.35654554  0.67808962     0.33400
loop_ 
_geom_bond_atom_site_label_1 
_geom_bond_atom_site_label_2 
_geom_bond_distance 
_geom_bond_site_symmetry_2 
_ccdc_geom_bond_type 
O1           C16   1.258       .  A
O1           Al9   1.880       .  S
C2           O12   1.262       .  A
C2            O3   1.270       .  A
C2          C750   1.480       .  S
O3           Al5   1.936       .  S
O4            C6   1.256       .  A
O4           Al5   1.879       .  S
Al5          O13   1.911       .  S
Al5          O15   1.941       .  S
Al5          O14   1.775       .  S
C6           O19   1.268       .  A
C6          C722   1.479       .  S
O7           C17   1.263       .  A
O7           Al9   1.912       .  S
O8           C21   1.262       .  A
O8          Al18   1.876       .  S
Al9          O22   1.940       .  S
Al9          O19   1.947       .  S
Al9          O14   1.777       .  S
O10          C17   1.262       .  A
O10         Al18   1.920       .  S
O11          C20   1.262       .  A
O11         Al18   1.923       .  S
O12         Al18   1.872       .  S
O13          C20   1.261       .  A
O14         Al18   1.776       .  S
O15          C16   1.268       .  A
C16         C793   1.493       .  S
C17         C821   1.491       .  S
C20         C681   1.486       .  S
C21          O22   1.271       .  A
C21         C765   1.468       .  S
O23          C38   1.273       .  A
O23         Al31   1.946       .  S
C24          O34   1.271       .  A
C24          O25   1.262       .  A
C24         C666   1.477       .  S
O25         Al27   1.872       .  S
O26          C28   1.260       .  A
O26         Al27   1.916       .  S
Al27         O35   1.917       .  S
Al27         O37   1.872       .  S
Al27         O36   1.777       .  S
C28          O41   1.259       .  A
C28         C597   1.489       .  S
O29          C39   1.268       .  A
O29         Al31   1.944       .  S
O30          C43   1.265       .  A
O30         Al40   1.926       .  S
Al31         O44   1.879       .  S
Al31         O41   1.904       .  S
Al31         O36   1.775       .  S
O32          C39   1.257       .  A
O32         Al40   1.873       .  S
O33          C42   1.261       .  A
O33         Al40   1.906       .  S
O34         Al40   1.929       .  S
O35          C42   1.261       .  A
O36         Al40   1.775       .  S
O37          C38   1.263       .  A
C38         C625   1.470       .  S
C39         C709   1.496       .  S
C42         C554   1.487       .  S
C43          O44   1.258       .  A
C43         C569   1.485       .  S
O45          C60   1.260       .  A
O45         Al53   1.894       .  S
C46          O56   1.260   1_545  A
C46          O47   1.268       .  A
C46         C638   1.479   1_545  S
O47         Al49   1.934       .  S
O48          C50   1.254       .  A
O48         Al49   1.862       .  S
Al49         O57   1.907       .  S
Al49         O59   1.926       .  S
Al49         O58   1.775       .  S
C50          O63   1.267       .  A
C50         C526   1.463       .  S
O51          C61   1.261   1_545  A
O51         Al53   1.918       .  S
O52          C65   1.260       .  A
O52         Al62   1.863       .  S
Al53         O66   1.936       .  S
Al53         O63   1.939       .  S
Al53         O58   1.780       .  S
O54          C61   1.262       .  A
O54         Al62   1.914   1_565  S
O55          C64   1.265       .  A
O55         Al62   1.932       .  S
O56         Al62   1.875   1_565  S
O57          C64   1.262       .  A
O58         Al62   1.774       .  S
O59          C60   1.263       .  A
C60         C834   1.492       .  S
C61         C806   1.499       .  S
C64         C498   1.490       .  S
C65          O66   1.271       .  A
C65         C653   1.476       .  S
O67          C82   1.274       .  A
O67         Al75   1.943       .  S
C68          O78   1.272       .  A
C68          O69   1.261       .  A
C68         C778   1.481       .  S
O69         Al71   1.875       .  S
O70          C72   1.261       .  A
O70         Al71   1.921       .  S
Al71         O79   1.922       .  S
Al71         O81   1.868       .  S
Al71         O80   1.776       .  S
C72          O85   1.256       .  A
C72         C582   1.484       .  S
O73          C83   1.269       .  A
O73         Al75   1.946       .  S
O74          C87   1.264       .  A
O74         Al84   1.928       .  S
Al75         O88   1.875       .  S
Al75         O85   1.897       .  S
Al75         O80   1.772       .  S
O76          C83   1.252       .  A
O76         Al84   1.846       .  S
O77          C86   1.257       .  A
O77         Al84   1.890       .  S
O78         Al84   1.938       .  S
O79          C86   1.263       .  A
O80         Al84   1.774       .  S
O81          C82   1.263       .  A
C82         C737   1.471       .  S
C83         C513   1.478       .  S
C86         C470   1.482       .  S
C87          O88   1.255       .  A
C87         C610   1.478       .  S
O89         C104   1.259       .  A
O89         Al97   1.889       .  S
C90         O100   1.262       .  A
C90          O91   1.270       .  A
C90         C345   1.487       .  S
O91         Al93   1.943       .  S
O92          C94   1.254       .  A
O92         Al93   1.864       .  S
Al93        O101   1.911       .  S
Al93        O103   1.953       .  S
Al93        O102   1.774       .  S
C94         O107   1.266       .  A
C94         C317   1.460       .  S
O95         C105   1.260       .  A
O95         Al97   1.903       .  S
O96         C109   1.263       .  A
O96        Al106   1.887       .  S
Al97        O110   1.937       .  S
Al97        O107   1.940       .  S
Al97        O102   1.777       .  S
O98         C105   1.264       .  A
O98        Al106   1.922       .  S
O99         C108   1.265       .  A
O99        Al106   1.925       .  S
O100       Al106   1.887       .  S
O101        C108   1.263       .  A
O102       Al106   1.774       .  S
O103        C104   1.269       .  A
C104        C401   1.495       .  S
C105        C429   1.492       .  S
C108        C694   1.479       .  S
C109        O110   1.270       .  A
C109        C373   1.482       .  S
O111        C126   1.273       .  A
O111       Al119   1.943       .  S
C112        O122   1.273       .  A
C112        O113   1.261       .  A
C112        C302   1.485       .  S
O113       Al115   1.875       .  S
O114        C116   1.262       .  A
O114       Al115   1.927       .  S
Al115       O123   1.929       .  S
Al115       O125   1.869       .  S
Al115       O124   1.775       .  S
C116        O129   1.258       .  A
C116        C233   1.493       .  S
O117        C127   1.269       .  A
O117       Al119   1.951       .  S
O118        C131   1.267       .  A
O118       Al128   1.939       .  S
Al119       O132   1.875       .  S
Al119       O129   1.902       .  S
Al119       O124   1.779       .  S
O120        C127   1.251       .  A
O120       Al128   1.836       .  S
O121        C130   1.258       .  A
O121       Al128   1.891       .  S
O122       Al128   1.950       .  S
O123        C130   1.264       .  A
O124       Al128   1.775       .  S
O125        C126   1.262       .  A
C126        C274   1.471       .  S
C127        C330   1.476       .  S
C130        C541   1.479       .  S
C131        O132   1.255       .  A
C131        C205   1.488       .  S
O133        C148   1.274       .  A
O133       Al141   1.956       .  S
C134        O144   1.269       .  A
C134        O135   1.263       .  A
C134        C386   1.486       .  S
O135       Al137   1.889       .  S
O136        C138   1.262       .  A
O136       Al137   1.913       .  S
Al137       O145   1.919       .  S
Al137       O147   1.880       .  S
Al137       O146   1.772       .  S
C138        O151   1.261       .  A
C138        C218   1.484       .  S
O139        C149   1.273       .  A
O139       Al141   1.963       .  S
O140        C153   1.265       .  A
O140       Al150   1.934       .  S
Al141       O154   1.891       .  S
Al141       O151   1.910       .  S
Al141       O146   1.776       .  S
O142        C149   1.253       .  A
O142       Al150   1.857       .  S
O143        C152   1.260       .  A
O143       Al150   1.893       .  S
O144       Al150   1.936       .  S
O145        C152   1.264       .  A
O146       Al150   1.772       .  S
O147        C148   1.263       .  A
C148        C358   1.481       .  S
C149        C177   1.492       .  S
C152        C457   1.479       .  S
C153        O154   1.259       .  A
C153        C246   1.483       .  S
O155        C170   1.257       .  A
O155       Al163   1.879       .  S
C156        O166   1.262       .  A
C156        O157   1.270       .  A
C156        C261   1.474       .  S
O157       Al159   1.933       .  S
O158        C160   1.255       .  A
O158       Al159   1.873       .  S
Al159       O167   1.922       .  S
Al159       O169   1.943       .  S
Al159       O168   1.779       .  S
C160        O173   1.268       .  A
C160        C190   1.473       .  S
O161        C171   1.260   1_545  A
O161       Al163   1.912       .  S
O162        C175   1.263       .  A
O162       Al172   1.879       .  S
Al163       O176   1.946       .  S
Al163       O173   1.945       .  S
Al163       O168   1.777       .  S
O164        C171   1.263       .  A
O164       Al172   1.925   1_565  S
O165        C174   1.262       .  A
O165       Al172   1.917       .  S
O166       Al172   1.875       .  S
O167        C174   1.264       .  A
O168       Al172   1.774       .  S
O169        C170   1.268       .  A
C170        C442   1.490       .  S
C171        C414   1.499       .  S
C174        C485   1.489       .  S
C175        O176   1.273       .  A
C175        C289   1.475       .  S
C177        C178   1.422       .  A
C177        C182   1.406       .  A
C178        C179   1.397       .  A
C178        N183   1.434       .  S
C179        C180   1.397       .  A
C179        H184   1.084       .  S
C180        C185   1.488       .  S
C180        C181   1.413       .  A
C181        C182   1.412       .  A
C181        N186   1.437       .  S
C182        H187   1.083       .  S
N183        H203   1.046       .  S
N183        H204   1.046       .  S
C185        C188   1.405       .  A
C185        C192   1.421       .  A
N186        H201   1.045       .  S
N186        H202   1.046       .  S
C188        C189   1.406       .  A
C188        H193   1.084       .  S
C189        C190   1.410       .  A
C189        N194   1.438       .  S
C190        C191   1.400       .  A
C191        C192   1.403       .  A
C191        H195   1.085       .  S
C192        N196   1.440       .  S
N194        H197   1.046       .  S
N194        H198   1.045       .  S
N196        H199   1.046       .  S
N196        H200   1.042       .  S
C205        C206   1.417       .  A
C205        C210   1.405       .  A
C206        C207   1.407       .  A
C206        N211   1.438       .  S
C207        C208   1.402       .  A
C207        H212   1.084       .  S
C208        C213   1.489       .  S
C208        C209   1.412       .  A
C209        C210   1.407       .  A
C209        N214   1.438       .  S
C210        H215   1.083       .  S
N211        H231   1.046       .  S
N211        H232   1.046       .  S
C213        C216   1.401       .  A
C213        C220   1.413       .  A
N214        H229   1.046       .  S
N214        H230   1.045       .  S
C216        C217   1.399       .  A
C216        H221   1.084       .  S
C217        C218   1.413       .  A
C217        N222   1.433       .  S
C218        C219   1.406       .  A
C219        C220   1.412       .  A
C219        H223   1.083       .  S
C220        N224   1.437       .  S
N222        H225   1.046       .  S
N222        H226   1.046       .  S
N224        H227   1.046       .  S
N224        H228   1.046       .  S
C233        C234   1.415   1_565  A
C233        C238   1.410       .  A
C234        C235   1.402       .  A
C234        N239   1.433       .  S
C235        C236   1.401       .  A
C235        H240   1.084       .  S
C236        C241   1.487       .  S
C236        C237   1.409       .  A
C237        C238   1.412   1_545  A
C237        N242   1.437       .  S
C238        H243   1.083       .  S
N239        H259   1.046       .  S
N239        H260   1.046       .  S
C241        C244   1.403       .  A
C241        C248   1.410       .  A
N242        H257   1.046   1_545  S
N242        H258   1.046       .  S
C244        C245   1.408       .  A
C244        H249   1.084       .  S
C245        C246   1.413       .  A
C245        N250   1.437       .  S
C246        C247   1.405       .  A
C247        C248   1.407       .  A
C247        H251   1.084       .  S
C248        N252   1.437       .  S
N250        H253   1.046       .  S
N250        H254   1.046       .  S
N252        H255   1.046       .  S
N252        H256   1.045       .  S
C261        C262   1.412   1_545  A
C261        C266   1.405       .  A
C262        C263   1.399       .  A
C262        N267   1.433       .  S
C263        C264   1.397       .  A
C263        H268   1.084       .  S
C264        C269   1.468       .  S
C264        C265   1.407   1_565  A
C265        C266   1.402       .  A
C265        N270   1.438       .  S
C266        H271   1.084       .  S
N267        H287   1.046       .  S
N267        H288   1.046       .  S
C269        C272   1.400       .  A
C269        C276   1.405       .  A
N270        H285   1.046       .  S
N270        H286   1.045       .  S
C272        C273   1.399       .  A
C272        H277   1.084       .  S
C273        C274   1.409       .  A
C273        N278   1.433       .  S
C274        C275   1.406       .  A
C275        C276   1.402       .  A
C275        H279   1.084       .  S
C276        N280   1.438       .  S
N278        H281   1.045       .  S
N278        H282   1.046       .  S
N280        H283   1.046       .  S
N280        H284   1.046       .  S
C289        C290   1.413       .  A
C289        C294   1.401       .  A
C290        C291   1.405       .  A
C290        N295   1.438       .  S
C291        C292   1.402       .  A
C291        H296   1.084       .  S
C292        C297   1.483   1_545  S
C292        C293   1.412       .  A
C293        C294   1.405       .  A
C293        N298   1.438   1_545  S
C294        H299   1.084       .  S
N295        H315   1.046       .  S
N295        H316   1.046       .  S
C297        C300   1.398   1_566  A
C297        C304   1.412   1_556  A
N298        H313   1.046       .  S
N298        H314   1.046       .  S
C300        C301   1.400   1_545  A
C300        H305   1.084       .  S
C301        C302   1.416       .  A
C301        N306   1.433   1_565  S
C302        C303   1.405       .  A
C303        C304   1.408       .  A
C303        H307   1.083       .  S
C304        N308   1.438   1_554  S
N306        H309   1.046       .  S
N306        H310   1.046   1_545  S
N308        H311   1.046       .  S
N308        H312   1.046       .  S
C317        C318   1.406       .  A
C317        C322   1.398       .  A
C318        C319   1.404       .  A
C318        N323   1.438       .  S
C319        C320   1.406       .  A
C319        H324   1.083       .  S
C320        C325   1.487   1_556  S
C320        C321   1.415       .  A
C321        C322   1.402       .  A
C321        N326   1.438       .  S
C322        H327   1.084       .  S
N323        H343   1.046       .  S
N323        H344   1.046       .  S
C325        C328   1.399       .  A
C325        C332   1.417       .  A
N326        H341   1.045       .  S
N326        H342   1.046       .  S
C328        C329   1.393       .  A
C328        H333   1.083   1_554  S
C329        C330   1.414       .  A
C329        N334   1.435       .  S
C330        C331   1.402       .  A
C331        C332   1.410       .  A
C331        H335   1.084       .  S
C332        N336   1.437       .  S
N334        H337   1.046       .  S
N334        H338   1.046       .  S
N336        H339   1.046       .  S
N336        H340   1.045       .  S
C345        C346   1.416       .  A
C345        C350   1.409       .  A
C346        C347   1.406       .  A
C346        N351   1.438       .  S
C347        C348   1.401       .  A
C347        H352   1.084   1_556  S
C348        C353   1.483   1_556  S
C348        C349   1.407       .  A
C349        C350   1.408       .  A
C349        N354   1.437       .  S
C350        H355   1.084       .  S
N351        H371   1.045       .  S
N351        H372   1.046       .  S
C353        C356   1.400       .  A
C353        C360   1.411       .  A
N354        H369   1.046       .  S
N354        H370   1.046       .  S
C356        C357   1.403       .  A
C356        H361   1.084       .  S
C357        C358   1.412       .  A
C357        N362   1.433       .  S
C358        C359   1.404       .  A
C359        C360   1.409       .  A
C359        H363   1.084       .  S
C360        N364   1.437       .  S
N362        H365   1.045       .  S
N362        H366   1.046       .  S
N364        H367   1.046       .  S
N364        H368   1.045       .  S
C373        C374   1.414       .  A
C373        C378   1.406       .  A
C374        C375   1.406       .  A
C374        N379   1.438       .  S
C375        C376   1.403       .  A
C375        H380   1.084       .  S
C376        C381   1.483       .  S
C376        C377   1.408       .  A
C377        C378   1.404       .  A
C377        N382   1.438       .  S
C378        H383   1.084       .  S
N379        H399   1.045       .  S
N379        H400   1.046       .  S
C381        C384   1.402       .  A
C381        C388   1.409       .  A
N382        H397   1.046       .  S
N382        H398   1.046       .  S
C384        C385   1.402       .  A
C384        H389   1.084       .  S
C385        C386   1.413       .  A
C385        N390   1.432       .  S
C386        C387   1.408       .  A
C387        C388   1.405       .  A
C387        H391   1.083       .  S
C388        N392   1.438       .  S
N390        H393   1.046       .  S
N390        H394   1.046       .  S
N392        H395   1.046       .  S
N392        H396   1.046       .  S
C401        C402   1.417       .  A
C401        C406   1.408       .  A
C402        C403   1.410       .  A
C402        N407   1.438       .  S
C403        C404   1.402       .  A
C403        H408   1.084       .  S
C404        C409   1.492       .  S
C404        C405   1.410       .  A
C405        C406   1.412       .  A
C405        N410   1.437       .  S
C406        H411   1.083       .  S
N407        H427   1.046       .  S
N407        H428   1.046       .  S
C409        C412   1.403       .  A
C409        C416   1.409       .  A
N410        H425   1.045       .  S
N410        H426   1.046       .  S
C412        C413   1.414       .  A
C412        H417   1.083       .  S
C413        C414   1.419       .  A
C413        N418   1.437   1_565  S
C414        C415   1.408       .  A
C415        C416   1.407       .  A
C415        H419   1.083       .  S
C416        N420   1.438       .  S
N418        H421   1.046       .  S
N418        H422   1.046       .  S
N420        H423   1.046       .  S
N420        H424   1.046       .  S
C429        C430   1.418       .  A
C429        C434   1.406       .  A
C430        C431   1.411       .  A
C430        N435   1.437       .  S
C431        C432   1.403       .  A
C431        H436   1.084       .  S
C432        C437   1.489       .  S
C432        C433   1.410       .  A
C433        C434   1.404       .  A
C433        N438   1.438       .  S
C434        H439   1.084       .  S
N435        H455   1.046       .  S
N435        H456   1.046       .  S
C437        C440   1.402       .  A
C437        C444   1.411       .  A
N438        H453   1.046       .  S
N438        H454   1.046       .  S
C440        C441   1.407       .  A
C440        H445   1.084       .  S
C441        C442   1.417       .  A
C441        N446   1.438       .  S
C442        C443   1.407       .  A
C443        C444   1.409       .  A
C443        H447   1.083       .  S
C444        N448   1.438       .  S
N446        H449   1.046       .  S
N446        H450   1.046       .  S
N448        H451   1.046       .  S
N448        H452   1.046       .  S
C457        C458   1.411       .  A
C457        C462   1.406       .  A
C458        C459   1.399       .  A
C458        N463   1.433       .  S
C459        C460   1.402       .  A
C459        H464   1.084       .  S
C460        C465   1.480   1_455  S
C460        C461   1.410       .  A
C461        C462   1.405       .  A
C461        N466   1.438       .  S
C462        H467   1.083       .  S
N463        H483   1.046       .  S
N463        H484   1.046       .  S
C465        C468   1.400       .  A
C465        C472   1.409       .  A
N466        H481   1.046       .  S
N466        H482   1.046       .  S
C468        C469   1.404       .  A
C468        H473   1.084       .  S
C469        C470   1.417       .  A
C469        N474   1.438       .  S
C470        C471   1.405       .  A
C471        C472   1.402       .  A
C471        H475   1.084       .  S
C472        N476   1.438       .  S
N474        H477   1.046       .  S
N474        H478   1.046       .  S
N476        H479   1.046       .  S
N476        H480   1.046       .  S
C485        C486   1.411       .  A
C485        C490   1.407       .  A
C486        C487   1.413       .  A
C486        N491   1.437       .  S
C487        C488   1.409       .  A
C487        H492   1.083       .  S
C488        C493   1.498       .  S
C488        C489   1.412       .  A
C489        C490   1.405       .  A
C489        N494   1.438   1_545  S
C490        H495   1.084       .  S
N491        H511   1.046       .  S
N491        H512   1.046       .  S
C493        C496   1.405       .  A
C493        C500   1.413       .  A
N494        H509   1.046       .  S
N494        H510   1.046   1_565  S
C496        C497   1.408       .  A
C496        H501   1.084       .  S
C497        C498   1.416       .  A
C497        N502   1.439   1_545  S
C498        C499   1.405       .  A
C499        C500   1.410       .  A
C499        H503   1.083       .  S
C500        N504   1.437       .  S
N502        H505   1.046       .  S
N502        H506   1.046       .  S
N504        H507   1.045       .  S
N504        H508   1.046       .  S
C513        C514   1.416       .  A
C513        C518   1.401       .  A
C514        C515   1.399       .  A
C514        N519   1.439       .  S
C515        C516   1.400       .  A
C515        H520   1.083   1_554  S
C516        C521   1.488   1_554  S
C516        C517   1.416       .  A
C517        C518   1.408       .  A
C517        N522   1.437       .  S
C518        H523   1.083       .  S
N519        H539   1.046       .  S
N519        H540   1.045       .  S
C521        C524   1.405       .  A
C521        C528   1.414       .  A
N522        H537   1.045       .  S
N522        H538   1.046       .  S
C524        C525   1.399       .  A
C524        H529   1.084   1_556  S
C525        C526   1.413       .  A
C525        N530   1.439       .  S
C526        C527   1.401       .  A
C527        C528   1.404       .  A
C527        H531   1.084       .  S
C528        N532   1.438       .  S
N530        H533   1.045       .  S
N530        H534   1.044       .  S
N532        H535   1.046       .  S
N532        H536   1.045       .  S
C541        C542   1.412       .  A
C541        C546   1.404       .  A
C542        C543   1.403       .  A
C542        N547   1.432       .  S
C543        C544   1.400       .  A
C543        H548   1.084       .  S
C544        C549   1.481       .  S
C544        C545   1.410       .  A
C545        C546   1.407       .  A
C545        N550   1.437       .  S
C546        H551   1.084       .  S
N547        H567   1.046       .  S
N547        H568   1.045       .  S
C549        C552   1.401       .  A
C549        C556   1.408       .  A
N550        H565   1.046       .  S
N550        H566   1.046       .  S
C552        C553   1.403       .  A
C552        H557   1.084       .  S
C553        C554   1.414       .  A
C553        N558   1.433       .  S
C554        C555   1.407       .  A
C555        C556   1.408       .  A
C555        H559   1.083       .  S
C556        N560   1.437       .  S
N558        H561   1.046       .  S
N558        H562   1.046       .  S
N560        H563   1.046       .  S
N560        H564   1.046       .  S
C569        C570   1.415       .  A
C569        C574   1.408       .  A
C570        C571   1.407       .  A
C570        N575   1.438       .  S
C571        C572   1.401       .  A
C571        H576   1.084       .  S
C572        C577   1.481       .  S
C572        C573   1.407       .  A
C573        C574   1.405       .  A
C573        N578   1.438       .  S
C574        H579   1.084       .  S
N575        H595   1.045       .  S
N575        H596   1.046       .  S
C577        C580   1.401       .  A
C577        C584   1.410       .  A
N578        H593   1.046       .  S
N578        H594   1.046       .  S
C580        C581   1.406       .  A
C580        H585   1.084       .  S
C581        C582   1.413       .  A
C581        N586   1.432       .  S
C582        C583   1.406       .  A
C583        C584   1.404       .  A
C583        H587   1.084       .  S
C584        N588   1.438       .  S
N586        H589   1.046       .  S
N586        H590   1.045       .  S
N588        H591   1.046       .  S
N588        H592   1.045       .  S
C597        C598   1.418   1_565  A
C597        C602   1.409       .  A
C598        C599   1.403       .  A
C598        N603   1.438       .  S
C599        C600   1.399       .  A
C599        H604   1.084       .  S
C600        C605   1.478       .  S
C600        C601   1.406       .  A
C601        C602   1.408   1_545  A
C601        N606   1.437       .  S
C602        H607   1.083       .  S
N603        H623   1.045       .  S
N603        H624   1.046       .  S
C605        C608   1.401       .  A
C605        C612   1.416       .  A
N606        H621   1.045   1_545  S
N606        H622   1.046       .  S
C608        C609   1.405       .  A
C608        H613   1.084       .  S
C609        C610   1.413       .  A
C609        N614   1.438       .  S
C610        C611   1.402       .  A
C611        C612   1.402       .  A
C611        H615   1.084       .  S
C612        N616   1.439       .  S
N614        H617   1.046       .  S
N614        H618   1.046       .  S
N616        H619   1.045       .  S
N616        H620   1.044       .  S
C625        C626   1.412       .  A
C625        C630   1.403       .  A
C626        C627   1.401       .  A
C626        N631   1.438       .  S
C627        C628   1.398       .  A
C627        H632   1.084       .  S
C628        C633   1.471   1_554  S
C628        C629   1.408       .  A
C629        C630   1.404       .  A
C629        N634   1.438       .  S
C630        H635   1.084       .  S
N631        H651   1.046       .  S
N631        H652   1.046       .  S
C633        C636   1.399       .  A
C633        C640   1.404       .  A
N634        H649   1.046       .  S
N634        H650   1.046       .  S
C636        C637   1.402   1_565  A
C636        H641   1.084   1_566  S
C637        C638   1.416   1_545  A
C637        N642   1.438       .  S
C638        C639   1.408       .  A
C639        C640   1.402       .  A
C639        H643   1.084       .  S
C640        N644   1.437       .  S
N642        H645   1.046       .  S
N642        H646   1.044       .  S
N644        H647   1.046       .  S
N644        H648   1.046       .  S
C653        C654   1.414       .  A
C653        C658   1.405       .  A
C654        C655   1.395       .  A
C654        N659   1.433       .  S
C655        C656   1.396   1_545  A
C655        H660   1.084   1_545  S
C656        C661   1.468       .  S
C656        C657   1.408   1_565  A
C657        C658   1.404       .  A
C657        N662   1.438       .  S
C658        H663   1.083       .  S
N659        H679   1.046   1_545  S
N659        H680   1.046       .  S
C661        C664   1.398   1_565  A
C661        C668   1.406       .  A
N662        H677   1.046       .  S
N662        H678   1.046   1_545  S
C664        C665   1.402   1_545  A
C664        H669   1.084       .  S
C665        C666   1.417       .  A
C665        N670   1.438   1_565  S
C666        C667   1.405       .  A
C667        C668   1.398       .  A
C667        H671   1.083       .  S
C668        N672   1.439       .  S
N670        H673   1.045       .  S
N670        H674   1.046       .  S
N672        H675   1.046       .  S
N672        H676   1.046       .  S
C681        C682   1.413       .  A
C681        C686   1.407       .  A
C682        C683   1.411       .  A
C682        N687   1.437       .  S
C683        C684   1.404       .  A
C683        H688   1.084       .  S
C684        C689   1.485   1_655  S
C684        C685   1.408       .  A
C685        C686   1.405       .  A
C685        N690   1.438       .  S
C686        H691   1.084       .  S
N687        H707   1.046       .  S
N687        H708   1.046       .  S
C689        C692   1.401       .  A
C689        C696   1.411       .  A
N690        H705   1.046       .  S
N690        H706   1.046       .  S
C692        C693   1.405       .  A
C692        H697   1.084       .  S
C693        C694   1.413       .  A
C693        N698   1.439       .  S
C694        C695   1.403       .  A
C695        C696   1.411       .  A
C695        H699   1.084       .  S
C696        N700   1.437       .  S
N698        H701   1.046       .  S
N698        H702   1.046       .  S
N700        H703   1.046       .  S
N700        H704   1.046       .  S
C709        C710   1.415       .  A
C709        C714   1.410       .  A
C710        C711   1.412       .  A
C710        N715   1.437       .  S
C711        C712   1.408       .  A
C711        H716   1.083       .  S
C712        C717   1.496       .  S
C712        C713   1.407       .  A
C713        C714   1.401       .  A
C713        N718   1.433       .  S
C714        H719   1.084       .  S
N715        H735   1.046       .  S
N715        H736   1.046       .  S
C717        C720   1.407       .  A
C717        C724   1.415       .  A
N718        H733   1.046       .  S
N718        H734   1.045       .  S
C720        C721   1.406       .  A
C720        H725   1.083       .  S
C721        C722   1.408       .  A
C721        N726   1.432       .  S
C722        C723   1.403       .  A
C723        C724   1.408       .  A
C723        H727   1.084       .  S
C724        N728   1.438       .  S
N726        H729   1.045       .  S
N726        H730   1.045       .  S
N728        H731   1.046       .  S
N728        H732   1.046       .  S
C737        C738   1.414       .  A
C737        C742   1.403       .  A
C738        C739   1.402       .  A
C738        N743   1.438       .  S
C739        C740   1.398       .  A
C739        H744   1.084       .  S
C740        C745   1.468       .  S
C740        C741   1.407       .  A
C741        C742   1.402       .  A
C741        N746   1.438       .  S
C742        H747   1.084       .  S
N743        H763   1.046       .  S
N743        H764   1.046       .  S
C745        C748   1.398       .  A
C745        C752   1.403       .  A
N746        H761   1.046       .  S
N746        H762   1.045       .  S
C748        C749   1.402       .  A
C748        H753   1.084       .  S
C749        C750   1.416       .  A
C749        N754   1.438       .  S
C750        C751   1.409       .  A
C751        C752   1.402       .  A
C751        H755   1.084       .  S
C752        N756   1.438       .  S
N754        H757   1.045       .  S
N754        H758   1.046       .  S
N756        H759   1.046       .  S
N756        H760   1.045       .  S
C765        C766   1.411       .  A
C765        C770   1.402       .  A
C766        C767   1.402       .  A
C766        N771   1.438       .  S
C767        C768   1.400       .  A
C767        H772   1.084       .  S
C768        C773   1.473       .  S
C768        C769   1.409       .  A
C769        C770   1.403       .  A
C769        N774   1.438       .  S
C770        H775   1.084       .  S
N771        H791   1.046       .  S
N771        H792   1.046       .  S
C773        C776   1.397   1_556  A
C773        C780   1.407   1_556  A
N774        H789   1.046       .  S
N774        H790   1.046       .  S
C776        C777   1.402       .  A
C776        H781   1.084       .  S
C777        C778   1.419       .  A
C777        N782   1.439       .  S
C778        C779   1.406       .  A
C779        C780   1.403       .  A
C779        H783   1.083       .  S
C780        N784   1.438   1_554  S
N782        H785   1.046       .  S
N782        H786   1.045       .  S
N784        H787   1.046       .  S
N784        H788   1.046       .  S
C793        C794   1.418       .  A
C793        C798   1.407       .  A
C794        C795   1.406       .  A
C794        N799   1.438       .  S
C795        C796   1.402       .  A
C795        H800   1.084       .  S
C796        C801   1.491       .  S
C796        C797   1.411       .  A
C797        C798   1.411       .  A
C797        N802   1.437       .  S
C798        H803   1.083       .  S
N799        H819   1.046       .  S
N799        H820   1.046       .  S
C801        C804   1.404       .  A
C801        C808   1.409       .  A
N802        H817   1.045       .  S
N802        H818   1.046       .  S
C804        C805   1.415       .  A
C804        H809   1.083       .  S
C805        C806   1.419       .  A
C805        N810   1.437   1_565  S
C806        C807   1.409       .  A
C807        C808   1.403       .  A
C807        H811   1.083       .  S
C808        N812   1.439       .  S
N810        H813   1.046       .  S
N810        H814   1.046       .  S
N812        H815   1.045       .  S
N812        H816   1.046       .  S
C821        C822   1.414       .  A
C821        C826   1.409       .  A
C822        C823   1.401       .  A
C822        N827   1.433       .  S
C823        C824   1.402       .  A
C823        H828   1.084       .  S
C824        C829   1.489       .  S
C824        C825   1.410       .  A
C825        C826   1.412       .  A
C825        N830   1.437       .  S
C826        H831   1.083       .  S
N827        H847   1.046       .  S
N827        H848   1.046       .  S
C829        C832   1.402       .  A
C829        C836   1.409       .  A
N830        H845   1.046       .  S
N830        H846   1.046       .  S
C832        C833   1.410       .  A
C832        H837   1.084       .  S
C833        C834   1.419       .  A
C833        N838   1.438       .  S
C834        C835   1.407       .  A
C835        C836   1.406       .  A
C835        H839   1.084       .  S
C836        N840   1.437       .  S
N838        H841   1.046       .  S
N838        H842   1.045       .  S
N840        H843   1.046       .  S
N840        H844   1.046       .  S
