geometry optimzed in LAMMPS
_audit_creation_date              2020-12-01 
_audit_creation_method            'lammps2cif' 
_symmetry_space_group_name_H-M    'P1' 
_symmetry_Int_Tables_number       1 
_symmetry_cell_setting            triclinic 
loop_ 
_symmetry_equiv_pos_as_xyz 
  x,y,z 
_cell_length_a                    41.62925551 
_cell_length_b                    32.88389262294086 
_cell_length_c                    42.31804658744734 
_cell_angle_alpha                 89.8189553316745 
_cell_angle_beta                  90.24553271800772 
_cell_angle_gamma                 89.9745934963216 
loop_ 
_atom_site_label 
_atom_site_type_symbol 
_atom_site_fract_x 
_atom_site_fract_y 
_atom_site_fract_z 
_atom_site_charge 
O1          O  0.40299289  0.73849780  0.02390901    -0.82900
C2          C  0.46261204  0.65230386  0.43131498     0.96400
O3          O  0.47160197  0.65337024  0.46048427    -0.72100
O4          O  0.47448822  0.71483339  0.50180111    -0.75600
Al5        Al  0.44830231  0.66781401  0.99949401     1.49000
C6          C  0.47214958  0.75176799  0.49535851     0.91700
O7          O  0.40707461  0.75305762  0.43612734    -0.81900
O8          O  0.35633174  0.66170982  0.47375258    -0.75400
Al9        Al  0.40490792  0.74178161  0.48038290     1.90100
O10         O  0.37958208  0.70005694  0.42275775    -0.74500
O11         O  0.40267103  0.60565347  0.46552396    -0.74300
O12         O  0.43295670  0.65473009  0.42373456    -0.80000
O13         O  0.43199593  0.61503118  0.00583247    -0.78200
O14         O  0.41650498  0.68962596  0.47672738    -1.14300
O15         O  0.42644126  0.68134209  0.03820287    -0.73500
C16         C  0.40916017  0.71208213  0.04473464     0.97200
C17         C  0.38987256  0.73476369  0.41628645     0.93600
Al18       Al  0.39518815  0.65841690  0.44930542     1.55600
O19         O  0.44674794  0.76561715  0.48346263    -0.78200
C20         C  0.41609202  0.59225371  0.48971736     0.97700
C21         C  0.34356800  0.69589093  0.48007153     0.92600
O22         O  0.35980846  0.72864709  0.47899484    -0.83500
O23         O  0.39422085  0.28001620  0.48506962    -0.82900
C24         C  0.46077597  0.36575586  0.07752605     0.96400
O25         O  0.46865577  0.36449628  0.04840696    -0.72100
O26         O  0.47606534  0.29976775  0.01292090    -0.75600
Al27       Al  0.44758727  0.34408215  0.01031940     1.49000
C28         C  0.47187872  0.26209318  0.01203937     0.91700
O29         O  0.41099181  0.25558705  0.06936131    -0.81900
O30         O  0.35421042  0.34584318  0.03817645    -0.75400
Al31       Al  0.40375393  0.27033920  0.02689705     1.90100
O32         O  0.38396549  0.30665434  0.08901828    -0.74500
O33         O  0.39885809  0.40433639  0.04319197    -0.74300
O34         O  0.43200167  0.35972315  0.08613758    -0.80000
O35         O  0.42734054  0.39365289  0.49649989    -0.78200
O36         O  0.41559949  0.32214747  0.03268348    -1.14300
O37         O  0.43175955  0.32168162  0.46820677    -0.73500
C38         C  0.40945153  0.29613276  0.46286892     0.97200
C39         C  0.39570403  0.27134297  0.09168814     0.93600
Al40       Al  0.39411542  0.35157949  0.06141493     1.55600
O41         O  0.44474507  0.24740003  0.01759761    -0.78200
C42         C  0.41175575  0.41781669  0.01862782     0.97700
C43         C  0.34224888  0.31160339  0.03101423     0.92600
O44         O  0.35891835  0.27961926  0.03311233    -0.83500
O45         O  0.14843574  0.23143965  0.02059814    -0.82900
C46         C  0.21154991  0.14671335  0.42887380     0.96400
O47         O  0.22066122  0.14613591  0.45788791    -0.72100
O48         O  0.22775988  0.20807543  0.49746828    -0.75600
Al49       Al  0.19665589  0.16217264  0.99670634     1.49000
C50         C  0.22559739  0.24549150  0.49270210     0.91700
O51         O  0.15915974  0.25047637  0.43444656    -0.81900
O52         O  0.10619417  0.16174278  0.47279076    -0.75400
Al53       Al  0.15719518  0.23854598  0.47879679     1.90100
O54         O  0.13003875  0.19870392  0.42146093    -0.74500
O55         O  0.15080670  0.10352394  0.46370132    -0.74300
O56         O  0.18196283  0.15106946  0.42154686    -0.80000
O57         O  0.17697063  0.11107929  0.00578539    -0.78200
O58         O  0.16748848  0.18611012  0.47499765    -1.14300
O59         O  0.17918599  0.18109646  0.03703594    -0.73500
C60         C  0.16030712  0.21077644  0.04272482     0.97200
C61         C  0.14083292  0.23314390  0.41498435     0.93600
Al62       Al  0.14470029  0.15640714  0.44772787     1.55600
O63         O  0.19986517  0.26048070  0.48224530    -0.78200
C64         C  0.16394009  0.08900203  0.48763658     0.97700
C65         C  0.09457281  0.19654443  0.47943637     0.92600
O66         O  0.11169490  0.22840634  0.47785552    -0.83500
O67         O  0.14361238  0.78155901  0.48514426    -0.82900
C68         C  0.20958813  0.86901702  0.07910458     0.96400
O69         O  0.21544988  0.87195469  0.04955639    -0.72100
O70         O  0.22750008  0.80231747  0.02083786    -0.75600
Al71       Al  0.19706193  0.84378222  0.01254640     1.49000
C72         C  0.22376993  0.76501061  0.01555228     0.91700
O73         O  0.16274827  0.75394144  0.06968831    -0.81900
O74         O  0.10607073  0.84612716  0.04072320    -0.75400
Al75       Al  0.15419491  0.76983608  0.02775012     1.90100
O76         O  0.13445933  0.80362748  0.09011343    -0.74500
O77         O  0.15254884  0.90292214  0.04598509    -0.74300
O78         O  0.18318273  0.85420199  0.08806847    -0.80000
O79         O  0.17414073  0.88929076  0.49975018    -0.78200
O80         O  0.16601572  0.82084656  0.03460574    -1.14300
O81         O  0.18520963  0.81854821  0.47193940    -0.73500
C82         C  0.16200923  0.79537723  0.46441838     0.97200
C83         C  0.14689451  0.76858028  0.09213043     0.93600
Al84       Al  0.14557037  0.84944868  0.06380936     1.55600
O85         O  0.19614322  0.74929505  0.01657670    -0.78200
C86         C  0.16051454  0.91454104  0.01873044     0.97700
C87         C  0.09331237  0.81233373  0.03381071     0.92600
O88         O  0.10925140  0.77950205  0.03546723    -0.83500
O89         O  0.11609220  0.27597370  0.27313303    -0.82900
C90         C  0.05533059  0.36558782  0.17964218     0.96400
O91         O  0.04710301  0.36784170  0.20862992    -0.72100
O92         O  0.03733501  0.30062733  0.24097144    -0.75600
Al93       Al  0.06639615  0.34395888  0.24675858     1.49000
C94         C  0.04108077  0.26280582  0.24144505     0.91700
O95         O  0.10694636  0.25813482  0.18586800    -0.81900
O96         O  0.15943608  0.34884841  0.22348503    -0.75400
Al97       Al  0.11059962  0.27045494  0.23000568     1.90100
O98         O  0.13564691  0.31021459  0.17163728    -0.74500
O99         O  0.11264724  0.40563306  0.21541801    -0.74300
O100        O  0.08412930  0.35791646  0.17188381    -0.80000
O101        O  0.08837266  0.39195740  0.25897689    -0.78200
O102        O  0.09887249  0.32232387  0.22525955    -1.14300
O103        O  0.08061973  0.32234518  0.28678259    -0.73500
C104        C  0.10104539  0.29524881  0.29392936     0.97200
C105        C  0.12434029  0.27562942  0.16559416     0.93600
Al106      Al  0.12093133  0.35310062  0.19820163     1.55600
O107        O  0.06833044  0.24756801  0.23620776    -0.78200
C108        C  0.10166409  0.41731394  0.24132751     0.97700
C109        C  0.17205597  0.31439387  0.22940095     0.92600
O110        O  0.15582998  0.28184790  0.22714321    -0.83500
O111        O  0.11405309  0.73758178  0.23413463    -0.82900
C112        C  0.05290981  0.64775157  0.32475246     0.96400
O113        O  0.04456507  0.65340138  0.29581495    -0.72100
O114        O  0.04397569  0.71443404  0.25296621    -0.75600
Al115      Al  0.06913037  0.66703315  0.25798099     1.49000
C116        C  0.04511325  0.75084743  0.26134846     0.91700
O117        O  0.10982096  0.75197470  0.32196803    -0.81900
O118        O  0.16141598  0.66219530  0.28768504    -0.75400
Al119      Al  0.11130776  0.74033845  0.27827883     1.90100
O120        O  0.13314317  0.69675395  0.33837869    -0.74500
O121        O  0.11792315  0.60435421  0.29045393    -0.74300
O122        O  0.08246795  0.64751548  0.33294866    -0.80000
O123        O  0.08328157  0.61299315  0.25325651    -0.78200
O124        O  0.10040485  0.68762387  0.28189121    -1.14300
O125        O  0.09245439  0.67943238  0.21982331    -0.73500
C126        C  0.10884299  0.71103454  0.21336820     0.97200
C127        C  0.12470407  0.73279368  0.34297078     0.93600
Al128      Al  0.12149111  0.65580249  0.30954510     1.55600
O129        O  0.06907267  0.76350922  0.27637773    -0.78200
C130        C  0.10182990  0.59033088  0.26823932     0.97700
C131        C  0.17330680  0.69605225  0.27947782     0.92600
O132        O  0.15648408  0.72825062  0.27906315    -0.83500
O133        O  0.36337738  0.23406056  0.23385989    -0.82900
C134        C  0.30241508  0.14248136  0.32333373     0.96400
O135        O  0.29446128  0.14603098  0.29407726    -0.72100
O136        O  0.29165259  0.20866882  0.25296877    -0.75600
Al137      Al  0.31854136  0.16234189  0.25640636     1.49000
C138        C  0.29280349  0.24524720  0.26104484     0.91700
O139        O  0.35550837  0.24747429  0.32131657    -0.81900
O140        O  0.41012186  0.15908408  0.28652615    -0.75400
Al141      Al  0.35920745  0.23651072  0.27768512     1.90100
O142        O  0.38218990  0.19477068  0.33738053    -0.74500
O143        O  0.36630121  0.10047728  0.29086136    -0.74300
O144        O  0.33164802  0.14507392  0.33220769    -0.80000
O145        O  0.33546673  0.10970444  0.25060848    -0.78200
O146        O  0.34905817  0.18373517  0.28077655    -1.14300
O147        O  0.34108973  0.17714879  0.21810516    -0.73500
C148        C  0.35806106  0.20848001  0.21244521     0.97200
C149        C  0.37143066  0.22982599  0.34233657     0.93600
Al150      Al  0.37034887  0.15277657  0.30886190     1.55600
O151        O  0.31727039  0.25870625  0.27459004    -0.78200
C152        C  0.35229793  0.08664690  0.26719593     0.97700
C153        C  0.42168459  0.19356733  0.27936096     0.92600
O154        O  0.40444883  0.22544734  0.27978363    -0.83500
O155        O  0.37361777  0.78115336  0.27247384    -0.82900
C156        C  0.30551082  0.86600887  0.17831022     0.96400
O157        O  0.29928284  0.86778684  0.20773418    -0.72100
O158        O  0.28927289  0.79858477  0.23791371    -0.75600
Al159      Al  0.31838583  0.84194124  0.24506248     1.49000
C160        C  0.29411124  0.76157596  0.24355928     0.91700
O161        O  0.35531306  0.75229499  0.18924112    -0.81900
O162        O  0.41068996  0.84619389  0.21664800    -0.75400
Al163      Al  0.36355740  0.76952139  0.23096892     1.90100
O164        O  0.38181705  0.80298499  0.16776307    -0.74500
O165        O  0.36390409  0.90222137  0.21144484    -0.74300
O166        O  0.33269079  0.85341794  0.16945519    -0.80000
O167        O  0.34139698  0.88932926  0.25668408    -0.78200
O168        O  0.35052473  0.82013664  0.22339692    -1.14300
O169        O  0.33214617  0.81900790  0.28540877    -0.73500
C170        C  0.35566990  0.79627556  0.29299440     0.97200
C171        C  0.37041784  0.76734227  0.16635107     0.93600
Al172      Al  0.37069053  0.84888556  0.19384705     1.55600
O173        O  0.32221779  0.74737624  0.24269862    -0.78200
C174        C  0.35382026  0.91423465  0.23783679     0.97700
C175        C  0.42398810  0.81272583  0.22374357     0.92600
O176        O  0.40826372  0.77980136  0.22280184    -0.83500
C177        C  0.32451883  0.02039244  0.25833810    -0.03000
C178        C  0.35350810  0.04249988  0.25998134     0.06700
C179        C  0.38294985  0.02203239  0.25534136    -0.03100
C180        C  0.38323482  0.98017060  0.24768690    -0.03100
C181        C  0.35418182  0.95821080  0.24584093     0.06800
C182        C  0.32483773  0.97863417  0.25123350    -0.03300
Br183      Br  0.28443319  0.95032263  0.24747320    -0.01800
Br184      Br  0.28408433  0.04666877  0.26774467    -0.01900
Br185      Br  0.42339802  0.95265939  0.24024007    -0.01900
Br186      Br  0.42284760  0.05131767  0.25923329    -0.01900
C187        C  0.21984929  0.69389775  0.24160107    -0.03000
C188        C  0.20790525  0.70020024  0.27236988     0.06700
C189        C  0.22733477  0.71954517  0.29489025    -0.03100
C190        C  0.25618569  0.73816368  0.28570565    -0.03100
C191        C  0.26671713  0.73592132  0.25400578     0.06800
C192        C  0.24933611  0.71177418  0.23241145    -0.03300
Br193      Br  0.26500005  0.70551392  0.18993684    -0.01800
Br194      Br  0.19497474  0.66277683  0.21181454    -0.01900
Br195      Br  0.27958951  0.76868828  0.31682375    -0.01900
Br196      Br  0.21361362  0.72121234  0.33843657    -0.01900
C197        C  0.46864417  0.81408821  0.26380511    -0.03000
C198        C  0.45843702  0.81022574  0.23209618     0.06700
C199        C  0.48001234  0.79565351  0.20942355    -0.03100
C200        C  0.00981307  0.77965875  0.21899317    -0.03100
C201        C  0.01839181  0.77822674  0.25134556     0.06800
C202        C  0.49902380  0.79890119  0.27333691    -0.03300
Br203      Br  0.01345404  0.80547892  0.31639095    -0.01800
Br204      Br  0.44021059  0.83813027  0.29426350    -0.01900
Br205      Br  0.03909015  0.76024229  0.18740938    -0.01900
Br206      Br  0.46799519  0.79657457  0.16531311    -0.01900
C207        C  0.22668876  0.29456325  0.21278996    -0.03000
C208        C  0.20663772  0.30986319  0.23662437     0.06700
C209        C  0.21793366  0.31096115  0.26810193    -0.03100
C210        C  0.24803571  0.29356767  0.27595730    -0.03100
C211        C  0.26557465  0.27245776  0.25268661     0.06800
C212        C  0.25574446  0.27526540  0.22078445    -0.03300
Br213      Br  0.28214624  0.25285378  0.18774446    -0.01800
Br214      Br  0.21346158  0.29855597  0.16913074    -0.01900
Br215      Br  0.26444503  0.29719173  0.31857416    -0.01900
Br216      Br  0.19117859  0.33367626  0.30059377    -0.01900
C217        C  0.46971107  0.18907872  0.24317327    -0.03000
C218        C  0.45625653  0.19920345  0.27270347     0.06700
C219        C  0.47349786  0.22420927  0.29343814    -0.03100
C220        C  0.00137107  0.24401481  0.28321886    -0.03100
C221        C  0.01367301  0.23727610  0.25247801     0.06800
C222        C  0.99862590  0.20793176  0.23307973    -0.03300
Br223      Br  0.01597895  0.19616292  0.19203686    -0.01800
Br224      Br  0.44721355  0.15191063  0.21583467    -0.01900
Br225      Br  0.02101029  0.28196874  0.31191007    -0.01900
Br226      Br  0.45794225  0.23206292  0.33599992    -0.01900
C227        C  0.13020068  0.48523607  0.24297560    -0.03000
C228        C  0.10288018  0.46121988  0.25012619     0.06700
C229        C  0.07568037  0.48022694  0.26378887    -0.03100
C230        C  0.07548223  0.52249452  0.26899179    -0.03100
C231        C  0.10253206  0.54623069  0.26149717     0.06800
C232        C  0.13000181  0.52751074  0.24883865    -0.03300
Br233      Br  0.16691354  0.56023515  0.23850563    -0.01800
Br234      Br  0.16865382  0.46046584  0.22635467    -0.01900
Br235      Br  0.03789403  0.54817124  0.28677762    -0.01900
Br236      Br  0.03758534  0.44968044  0.27459997    -0.01900
C237        C  0.22446341  0.88316115  0.13625317    -0.03000
C238        C  0.23385687  0.88078604  0.10406346     0.06700
C239        C  0.26680891  0.88602344  0.09712419    -0.03100
C240        C  0.29002477  0.88480874  0.12167247    -0.03100
C241        C  0.28073361  0.87744972  0.15359097     0.06800
C242        C  0.24747292  0.87970041  0.16077445    -0.03300
Br243      Br  0.23176269  0.87687124  0.20373197    -0.01800
Br244      Br  0.18012002  0.89392061  0.14752609    -0.01900
Br245      Br  0.33445202  0.89489518  0.11060140    -0.01900
Br246      Br  0.28085344  0.89717400  0.05443558    -0.01900
C247        C  0.14916104  0.78948524  0.37499492    -0.03000
C248        C  0.13313612  0.75159252  0.37336966     0.06700
C249        C  0.12975305  0.72794667  0.40080145    -0.03100
C250        C  0.14427862  0.74025797  0.42879358    -0.03100
C251        C  0.15623372  0.78033093  0.43190368     0.06800
C252        C  0.15950076  0.80466310  0.40456463    -0.03300
Br253      Br  0.17891976  0.85758362  0.40692071    -0.01800
Br254      Br  0.15891718  0.81931685  0.33686273    -0.01900
Br255      Br  0.15146739  0.69911910  0.46086810    -0.01900
Br256      Br  0.10382068  0.67919691  0.40115723    -0.01900
C257        C  0.11606641  0.71825758  0.12372311    -0.03000
C258        C  0.14214401  0.74505346  0.12103220     0.06700
C259        C  0.16074222  0.75462079  0.14738166    -0.03100
C260        C  0.14984258  0.74435371  0.17758920    -0.03100
C261        C  0.12221590  0.71883590  0.18124583     0.06800
C262        C  0.10674340  0.70375506  0.15366957    -0.03300
Br263      Br  0.07112240  0.66618116  0.15575986    -0.01800
Br264      Br  0.09276031  0.70251932  0.08618853    -0.01900
Br265      Br  0.17286725  0.76927017  0.21236541    -0.01900
Br266      Br  0.20156341  0.78152156  0.14141398    -0.01900
C267        C  0.14144596  0.02883748  0.02010169    -0.03000
C268        C  0.16115093  0.04469653  0.49431924     0.06700
C269        C  0.17479268  0.01639758  0.47346725    -0.03100
C270        C  0.17809333  0.97404584  0.98417822    -0.03100
C271        C  0.15898098  0.95871108  0.00945594     0.06800
C272        C  0.13977602  0.98674453  0.02666742    -0.03300
Br273      Br  0.10982035  0.96883880  0.05862244    -0.01800
Br274      Br  0.11670891  0.06683030  0.04447819    -0.01900
Br275      Br  0.20337262  0.94107005  0.45534624    -0.01900
Br276      Br  0.19083830  0.03473403  0.43301142    -0.01900
C277        C  0.14797264  0.19916951  0.10124426    -0.03000
C278        C  0.15261113  0.22550092  0.07521265     0.06700
C279        C  0.14806692  0.26798982  0.07952878    -0.03100
C280        C  0.13616403  0.28313891  0.10801865    -0.03100
C281        C  0.13209669  0.25713542  0.13438796     0.06800
C282        C  0.13843139  0.21501212  0.13090168    -0.03300
Br283      Br  0.13561368  0.17882436  0.16677816    -0.01800
Br284      Br  0.15447588  0.14151074  0.09665033    -0.01900
Br285      Br  0.12409268  0.34015197  0.10919658    -0.01900
Br286      Br  0.16053095  0.30779376  0.04767618    -0.01900
C287        C  0.12608163  0.29374252  0.38036354    -0.03000
C288        C  0.13107711  0.25133819  0.38427895     0.06700
C289        C  0.12300745  0.22471417  0.35915504    -0.03100
C290        C  0.10812720  0.23982440  0.33208809    -0.03100
C291        C  0.10663766  0.28199254  0.32669945     0.06800
C292        C  0.11492644  0.30912776  0.35106117    -0.03300
Br293      Br  0.11119261  0.36693097  0.34421970    -0.01800
Br294      Br  0.13335327  0.33096225  0.41477895    -0.01900
Br295      Br  0.08819942  0.20189385  0.30298373    -0.01900
Br296      Br  0.13450839  0.16749125  0.35898627    -0.01900
C297        C  0.28236396  0.11371222  0.37572366    -0.03000
C298        C  0.27721094  0.13837530  0.34853794     0.06700
C299        C  0.25041409  0.16459186  0.34830686    -0.03100
C300        C  0.23206847  0.17004427  0.37581539    -0.03100
C301        C  0.23559214  0.14407217  0.40230607     0.06800
C302        C  0.26144219  0.11606197  0.40219060    -0.03300
Br303      Br  0.26942028  0.08208847  0.43858020    -0.01800
Br304      Br  0.31692762  0.07454916  0.37598924    -0.01900
Br305      Br  0.20823460  0.21973854  0.37933060    -0.01900
Br306      Br  0.23797347  0.19400025  0.31070167    -0.01900
C307        C  0.01301435  0.20614827  0.02092475    -0.03000
C308        C  0.49879245  0.23602635  0.00132091     0.06700
C309        C  0.01018075  0.23641771  0.47176992    -0.03100
C310        C  0.04017667  0.22002445  0.46357202    -0.03100
C311        C  0.06010592  0.20238735  0.48684515     0.06800
C312        C  0.04306105  0.18917111  0.01253323    -0.03300
Br313      Br  0.06679219  0.15723984  0.04274403    -0.01800
Br314      Br  0.49209148  0.18920509  0.05928099    -0.01900
Br315      Br  0.05511374  0.22514972  0.42062060    -0.01900
Br316      Br  0.48402877  0.26125307  0.43933481    -0.01900
C317        C  0.25785868  0.27257598  0.03411820    -0.03000
C318        C  0.24968153  0.27000192  0.00162486     0.06700
C319        C  0.27180537  0.29290423  0.48034431    -0.03100
C320        C  0.30046784  0.31248690  0.49013274    -0.03100
C321        C  0.30818519  0.30660109  0.02143029     0.06800
C322        C  0.28658326  0.29136758  0.04389270    -0.03300
Br323      Br  0.29788904  0.29348786  0.08823254    -0.01800
Br324      Br  0.23180658  0.24676957  0.06574513    -0.01900
Br325      Br  0.32830426  0.33722824  0.45936652    -0.01900
Br326      Br  0.26045395  0.29067620  0.43618422    -0.01900
C327        C  0.48777798  0.40216055  0.12390098    -0.03000
C328        C  0.48630930  0.36929702  0.10238039     0.06700
C329        C  0.00723089  0.33606277  0.10707175    -0.03100
C330        C  0.02786478  0.33446438  0.13332372    -0.03100
C331        C  0.03069297  0.36779127  0.15394027     0.06800
C332        C  0.51051574  0.40189271  0.14913583    -0.03300
Br333      Br  0.51424097  0.44790718  0.17696295    -0.01800
Br334      Br  0.45887986  0.44740330  0.11872408    -0.01900
Br335      Br  0.04873771  0.28372839  0.14327058    -0.01900
Br336      Br  0.00591245  0.29030724  0.07927558    -0.01900
C337        C  0.39748481  0.24660186  0.17819098    -0.03000
C338        C  0.37208498  0.21751637  0.18066231     0.06700
C339        C  0.35940222  0.20057356  0.15238430    -0.03100
C340        C  0.36938280  0.21585027  0.12277080    -0.03100
C341        C  0.39094685  0.24872665  0.12127675     0.06800
C342        C  0.40608931  0.26247925  0.14872461    -0.03300
Br343      Br  0.43916795  0.30332356  0.14586058    -0.01800
Br344      Br  0.42197567  0.26634188  0.21407872    -0.01900
Br345      Br  0.35293469  0.19270019  0.08408611    -0.01900
Br346      Br  0.32736508  0.15812031  0.15297912    -0.01900
C347        C  0.39279663  0.23939266  0.42794994    -0.03000
C348        C  0.40127571  0.28100038  0.43089332     0.06700
C349        C  0.39898963  0.30670267  0.40422428    -0.03100
C350        C  0.38845180  0.29070057  0.37496598    -0.03100
C351        C  0.37852881  0.24952889  0.37290696     0.06800
C352        C  0.37907630  0.22496318  0.40010501    -0.03300
Br353      Br  0.35894913  0.17191871  0.40050312    -0.01800
Br354      Br  0.40239469  0.19958553  0.46057722    -0.01900
Br355      Br  0.38863235  0.32520596  0.33798610    -0.01900
Br356      Br  0.40988101  0.36354385  0.40759025    -0.01900
C357        C  0.51060938  0.61948830  0.40293286    -0.03000
C358        C  0.48664810  0.64992289  0.40462976     0.06700
C359        C  0.98380490  0.67714635  0.37878985    -0.03100
C360        C  0.00196918  0.67202653  0.35104862    -0.03100
C361        C  0.02785998  0.64435777  0.35035028     0.06800
C362        C  0.53169029  0.61749663  0.37650711    -0.03300
Br363      Br  0.56411726  0.57561236  0.37506462    -0.01800
Br364      Br  0.51419867  0.57990344  0.43629187    -0.01900
Br365      Br  0.98985964  0.70276495  0.31400173    -0.01900
Br366      Br  0.95919464  0.72612567  0.38273239    -0.01900
C367        C  0.52048461  0.79401302  0.48161549    -0.03000
C368        C  0.49974240  0.77772816  0.00486270     0.06700
C369        C  0.00694038  0.78167683  0.03738550    -0.03100
C370        C  0.03671958  0.79736116  0.04717415    -0.03100
C371        C  0.05928165  0.80956617  0.02453475     0.06800
C372        C  0.05050157  0.81083212  0.99231421    -0.03300
Br373      Br  0.07974577  0.83132949  0.46008642    -0.01800
Br374      Br  0.51057121  0.78795281  0.43740161    -0.01900
Br375      Br  0.04740713  0.80058483  0.09154369    -0.01900
Br376      Br  0.97608888  0.76552586  0.06870264    -0.01900
C377        C  0.29525722  0.69064560  0.51579200    -0.03000
C378        C  0.30871100  0.70018349  0.48610559     0.06700
C379        C  0.29081017  0.72353060  0.46446197    -0.03100
C380        C  0.26495511  0.75049609  0.97458179    -0.03100
C381        C  0.25165751  0.74105459  0.00437126     0.06800
C382        C  0.26610357  0.70932556  0.52526694    -0.03300
Br383      Br  0.24944212  0.70043082  0.56709584    -0.01800
Br384      Br  0.31813456  0.65481274  0.54409675    -0.01900
Br385      Br  0.24605323  0.79084916  0.94713008    -0.01900
Br386      Br  0.30699388  0.73283825  0.42234137    -0.01900
C387        C  0.44070332  0.52686791  0.01080101    -0.03000
C388        C  0.41489765  0.54802580  0.49740834     0.06700
C389        C  0.38432124  0.52458720  0.99472018    -0.03100
C390        C  0.38364166  0.48230836  0.00127511    -0.03100
C391        C  0.41154669  0.46218913  0.01186588     0.06800
C392        C  0.43986807  0.48475883  0.01692493    -0.03300
Br393      Br  0.47796651  0.45803160  0.03286679    -0.01800
Br394      Br  0.48291283  0.55639425  0.51436541    -0.01900
Br395      Br  0.34471577  0.45144056  0.99524966    -0.01900
Br396      Br  0.34623048  0.55329345  0.48426051    -0.01900
C397        C  0.37615451  0.79453269  0.38057355    -0.03000
C398        C  0.38132187  0.75225129  0.38502727     0.06700
C399        C  0.37603176  0.72530981  0.35943331    -0.03100
C400        C  0.36448659  0.74013663  0.33069944    -0.03100
C401        C  0.36136579  0.78238687  0.32560203     0.06800
C402        C  0.36717964  0.80961699  0.35051641    -0.03300
Br403      Br  0.36408720  0.86735878  0.34303553    -0.01800
Br404      Br  0.37967362  0.83199779  0.41539467    -0.01900
Br405      Br  0.35182234  0.70101515  0.29882371    -0.01900
Br406      Br  0.38624269  0.66762505  0.36151471    -0.01900
C407        C  0.36720992  0.74257330  0.08083118    -0.03000
C408        C  0.39570948  0.71878926  0.07703660     0.06700
C409        C  0.41165887  0.70413084  0.10459158    -0.03100
C410        C  0.40169702  0.71743540  0.13466868    -0.03100
C411        C  0.37532984  0.74383963  0.13743753     0.06800
C412        C  0.35659257  0.75322862  0.11105251    -0.03300
Br413      Br  0.31595005  0.78064332  0.11697329    -0.01800
Br414      Br  0.34223398  0.76390698  0.04593617    -0.01900
Br415      Br  0.42431346  0.70029029  0.17232886    -0.01900
Br416      Br  0.44862047  0.66866661  0.10228239    -0.01900
O417        O  0.40137369  0.73819008  0.52433612    -0.82900
C418        C  0.46283855  0.65051019  0.93186001     0.96400
O419        O  0.47198244  0.65311311  0.96085718    -0.72100
O420        O  0.47448408  0.71415416  0.00286003    -0.75600
Al421      Al  0.44828938  0.66865697  0.49960467     1.49000
C422        C  0.47290232  0.75085011  0.99532817     0.91700
O423        O  0.40803616  0.75274826  0.93547773    -0.81900
O424        O  0.35584580  0.66331800  0.97244587    -0.75400
Al425      Al  0.40618270  0.74161892  0.97963815     1.90100
O426        O  0.38126144  0.69950813  0.92144960    -0.74500
O427        O  0.40052310  0.60505911  0.96660944    -0.74300
O428        O  0.43315420  0.65178622  0.92419955    -0.80000
O429        O  0.43155940  0.61613171  0.50666302    -0.78200
O430        O  0.41681907  0.68902261  0.97626275    -1.14300
O431        O  0.42709325  0.68281595  0.53882491    -0.73500
C432        C  0.40866879  0.71255286  0.54530577     0.97200
C433        C  0.39112673  0.73457705  0.91537969     0.93600
Al434      Al  0.39508019  0.65780813  0.94900649     1.55600
O435        O  0.44826659  0.76446490  0.98193640    -0.78200
C436        C  0.41492737  0.59141845  0.99020800     0.97700
C437        C  0.34403494  0.69798805  0.97877248     0.92600
O438        O  0.36121421  0.72988010  0.97844077    -0.83500
O439        O  0.39546306  0.27869632  0.98460952    -0.82900
C440        C  0.46355343  0.36884025  0.57368619     0.96400
O441        O  0.47010962  0.36790597  0.54423484    -0.72100
O442        O  0.47680875  0.30017315  0.51237710    -0.75600
Al443      Al  0.44849967  0.34430038  0.50754103     1.49000
C444        C  0.47240773  0.26253895  0.51236918     0.91700
O445        O  0.41221817  0.25925102  0.56984168    -0.81900
O446        O  0.35670953  0.35056260  0.53719165    -0.75400
Al447      Al  0.40409862  0.27264244  0.52711509     1.90100
O448        O  0.38578562  0.31145533  0.58847562    -0.74500
O449        O  0.40321985  0.40682029  0.54064683    -0.74300
O450        O  0.43534736  0.36180765  0.58350047    -0.80000
O451        O  0.42728283  0.39442004  0.00113020    -0.78200
O452        O  0.41700664  0.32405536  0.53134450    -1.14300
O453        O  0.43113849  0.32453470  0.96989817    -0.73500
C454        C  0.41032133  0.29746771  0.96333148     0.97200
C455        C  0.39697189  0.27592864  0.59185425     0.93600
Al456      Al  0.39694193  0.35506964  0.55985123     1.55600
O457        O  0.44485700  0.24832743  0.51714736    -0.78200
C458        C  0.41422894  0.41857441  0.51469432     0.97700
C459        C  0.34387510  0.31644906  0.53127231     0.92600
O460        O  0.35972388  0.28387425  0.53435511    -0.83500
O461        O  0.15382979  0.23395716  0.52213228    -0.82900
C462        C  0.20948202  0.14470419  0.92832705     0.96400
O463        O  0.21801593  0.14353305  0.95756391    -0.72100
O464        O  0.22484928  0.20650586  0.99565638    -0.75600
Al465      Al  0.19956650  0.16345510  0.49717796     1.49000
C466        C  0.22210326  0.24399904  0.99186895     0.91700
O467        O  0.15661064  0.24715884  0.93289977    -0.81900
O468        O  0.10383369  0.15762627  0.97153837    -0.75400
Al469      Al  0.15348642  0.23587538  0.97741625     1.90100
O470        O  0.12742127  0.19528781  0.92036440    -0.74500
O471        O  0.15007806  0.10076843  0.96295122    -0.74300
O472        O  0.17999450  0.14900291  0.92071450    -0.80000
O473        O  0.18035031  0.11161314  0.50507062    -0.78200
O474        O  0.16464061  0.18380703  0.97406454    -1.14300
O475        O  0.18216185  0.18079894  0.53764248    -0.73500
C476        C  0.16490685  0.21178476  0.54382853     0.97200
C477        C  0.13799871  0.22976555  0.91362446     0.93600
Al478      Al  0.14264593  0.15327871  0.94669912     1.55600
O479        O  0.19587009  0.25892033  0.98248881    -0.78200
C480        C  0.16213064  0.08745530  0.98785745     0.97700
C481        C  0.09152902  0.19244650  0.97691556     0.92600
O482        O  0.10829624  0.22461086  0.97508282    -0.83500
O483        O  0.14405746  0.77976570  0.98600142    -0.82900
C484        C  0.21028777  0.86742174  0.57883586     0.96400
O485        O  0.21676353  0.86941850  0.54941663    -0.72100
O486        O  0.22737684  0.79921998  0.52037653    -0.75600
Al487      Al  0.19812509  0.84247944  0.51223103     1.49000
C488        C  0.22264153  0.76202890  0.51515179     0.91700
O489        O  0.16036857  0.75299859  0.56892168    -0.81900
O490        O  0.10612438  0.84746127  0.53971449    -0.75400
Al491      Al  0.15302548  0.77012617  0.52681174     1.90100
O492        O  0.13377119  0.80415689  0.58935747    -0.74500
O493        O  0.15351766  0.90293076  0.54507312    -0.74300
O494        O  0.18337715  0.85377945  0.58751543    -0.80000
O495        O  0.17131085  0.88860883  0.99992963    -0.78200
O496        O  0.16607607  0.82063149  0.53398394    -1.14300
O497        O  0.18438608  0.81889868  0.97253627    -0.73500
C498        C  0.16179866  0.79471570  0.96519913     0.97200
C499        C  0.14479121  0.76832725  0.59135613     0.93600
Al500      Al  0.14578261  0.84973477  0.56297350     1.55600
O501        O  0.19452300  0.74773608  0.51581833    -0.78200
C502        C  0.16254488  0.91508540  0.51830368     0.97700
C503        C  0.09282893  0.81404167  0.53266343     0.92600
O504        O  0.10831888  0.78094086  0.53415789    -0.83500
O505        O  0.11228787  0.27308963  0.77155442    -0.82900
C506        C  0.05484704  0.36459185  0.67785730     0.96400
O507        O  0.04576947  0.36621446  0.70670320    -0.72100
O508        O  0.03572984  0.30040482  0.74063418    -0.75600
Al509      Al  0.06482517  0.34350495  0.74551411     1.49000
C510        C  0.03879505  0.26260362  0.73941736     0.91700
O511        O  0.10565517  0.25843824  0.68379380    -0.81900
O512        O  0.15776809  0.34747295  0.72424654    -0.75400
Al513      Al  0.10811663  0.26930054  0.72824912     1.90100
O514        O  0.13562063  0.31012848  0.67181086    -0.74500
O515        O  0.11140931  0.40519118  0.71455455    -0.74300
O516        O  0.08397821  0.35755781  0.67083167    -0.80000
O517        O  0.08627690  0.39209773  0.75750013    -0.78200
O518        O  0.09719994  0.32156429  0.72424087    -1.14300
O519        O  0.07943206  0.32234027  0.78564918    -0.73500
C520        C  0.09851386  0.29351231  0.79252798     0.97200
C521        C  0.12454025  0.27583012  0.66484209     0.93600
Al522      Al  0.12003646  0.35246009  0.69796186     1.55600
O523        O  0.06552327  0.24694594  0.73268552    -0.78200
C524        C  0.09972004  0.41739964  0.73995445     0.97700
C525        C  0.16999983  0.31264320  0.72987563     0.92600
O526        O  0.15354493  0.28031011  0.72701190    -0.83500
O527        O  0.10905812  0.73961891  0.73419933    -0.82900
C528        C  0.05233882  0.64813437  0.82504073     0.96400
O529        O  0.04295859  0.65614687  0.79674131    -0.72100
O530        O  0.04230571  0.71621826  0.75229671    -0.75600
Al531      Al  0.06678259  0.66818369  0.75852220     1.49000
C532        C  0.04282817  0.75180789  0.76265643     0.91700
O533        O  0.10824165  0.75164349  0.82308995    -0.81900
O534        O  0.16043243  0.66531805  0.78585782    -0.75400
Al535      Al  0.10821470  0.74138784  0.77897988     1.90100
O536        O  0.13209411  0.69633288  0.83794810    -0.74500
O537        O  0.11829266  0.60567274  0.78726504    -0.74300
O538        O  0.08223037  0.64566677  0.83201385    -0.80000
O539        O  0.07883857  0.61315888  0.75489839    -0.78200
O540        O  0.09855502  0.68842213  0.78187096    -1.14300
O541        O  0.09033577  0.67948972  0.72022086    -0.73500
C542        C  0.10511172  0.71237844  0.71349768     0.97200
C543        C  0.12340435  0.73200203  0.84365827     0.93600
Al544      Al  0.12090300  0.65628368  0.80810335     1.55600
O545        O  0.06571712  0.76290245  0.77974575    -0.78200
C546        C  0.09940750  0.59095308  0.76754415     0.97700
C547        C  0.17112368  0.69987206  0.77770716     0.92600
O548        O  0.15334204  0.73112728  0.77775996    -0.83500
O549        O  0.36375457  0.23742975  0.73530124    -0.82900
C550        C  0.30230096  0.14340790  0.82387929     0.96400
O551        O  0.29515715  0.14475229  0.79422977    -0.72100
O552        O  0.29061415  0.20917866  0.75521672    -0.75600
Al553      Al  0.31870892  0.16423248  0.75661952     1.49000
C554        C  0.29169308  0.24604778  0.76245135     0.91700
O555        O  0.35363967  0.24862660  0.82288206    -0.81900
O556        O  0.40836044  0.16020715  0.78637202    -0.75400
Al557      Al  0.35844220  0.23874513  0.77893544     1.90100
O558        O  0.38255903  0.19734365  0.83754919    -0.74500
O559        O  0.36352653  0.10237585  0.79281872    -0.74300
O560        O  0.33097954  0.14910196  0.83348642    -0.80000
O561        O  0.33832092  0.11331429  0.74913074    -0.78200
O562        O  0.34836390  0.18601785  0.78144320    -1.14300
O563        O  0.34031084  0.18213606  0.71826964    -0.73500
C564        C  0.35779671  0.21322214  0.71319288     0.97200
C565        C  0.37070124  0.23160413  0.84339371     0.93600
Al566      Al  0.36927910  0.15513085  0.80970861     1.55600
O567        O  0.31643929  0.26062607  0.77485428    -0.78200
C568        C  0.35238490  0.08943696  0.76743654     0.97700
C569        C  0.42018505  0.19469190  0.77950794     0.92600
O570        O  0.40366270  0.22717699  0.78145657    -0.83500
O571        O  0.37162818  0.78261329  0.77323287    -0.82900
C572        C  0.30599465  0.86870815  0.67840024     0.96400
O573        O  0.30000705  0.87194623  0.70780885    -0.72100
O574        O  0.28877904  0.80335054  0.73807853    -0.75600
Al575      Al  0.31850619  0.84580602  0.74533591     1.49000
C576        C  0.29283088  0.76596888  0.74264578     0.91700
O577        O  0.35536547  0.75551107  0.68933734    -0.81900
O578        O  0.41027747  0.84914868  0.71752742    -0.75400
Al579      Al  0.36260204  0.77225176  0.73132625     1.90100
O580        O  0.38271257  0.80575731  0.66851779    -0.74500
O581        O  0.36368249  0.90530082  0.71125369    -0.74300
O582        O  0.33305391  0.85560970  0.66957594    -0.80000
O583        O  0.34238943  0.89244548  0.75700830    -0.78200
O584        O  0.35031431  0.82315903  0.72380884    -1.14300
O585        O  0.33149049  0.82273917  0.78585809    -0.73500
C586        C  0.35409976  0.79872947  0.79362848     0.97200
C587        C  0.37117323  0.77026264  0.66684267     0.93600
Al588      Al  0.37081637  0.85164999  0.69425206     1.55600
O589        O  0.32063234  0.75079314  0.74154323    -0.78200
C590        C  0.35416614  0.91740652  0.73782165     0.97700
C591        C  0.42326529  0.81569787  0.72520088     0.92600
O592        O  0.40752356  0.78271079  0.72449526    -0.83500
C593        C  0.32481643  0.02296714  0.75997757    -0.03000
C594        C  0.35358719  0.04548759  0.76007713     0.06700
C595        C  0.38289233  0.02576666  0.75358536    -0.03100
C596        C  0.38323095  0.98403355  0.74564052    -0.03100
C597        C  0.35441170  0.96140752  0.74568619     0.06800
C598        C  0.32517417  0.98122172  0.75285831    -0.03300
Br599      Br  0.28486284  0.95226565  0.75133283    -0.01800
Br600      Br  0.28477026  0.04895203  0.77108377    -0.01900
Br601      Br  0.42317827  0.95781403  0.73506507    -0.01900
Br602      Br  0.42246742  0.05599561  0.75574812    -0.01900
C603        C  0.21791606  0.69926789  0.73994942    -0.03000
C604        C  0.20547662  0.70617040  0.77046931     0.06700
C605        C  0.22402682  0.72743124  0.79271046    -0.03100
C606        C  0.25329791  0.74512839  0.78386851    -0.03100
C607        C  0.26482858  0.74114774  0.75265135     0.06800
C608        C  0.24770581  0.71666192  0.73107418    -0.03300
Br609      Br  0.26421574  0.70914918  0.68903503    -0.01800
Br610      Br  0.19314739  0.66845500  0.70987609    -0.01900
Br611      Br  0.27625601  0.77640890  0.81491261    -0.01900
Br612      Br  0.20833740  0.73401089  0.83530967    -0.01900
C613        C  0.46721404  0.81586634  0.76572916    -0.03000
C614        C  0.45749878  0.81333438  0.73382737     0.06700
C615        C  0.47941055  0.80016090  0.71099013    -0.03100
C616        C  0.00886342  0.78325786  0.72048654    -0.03100
C617        C  0.01678338  0.78013927  0.75292048     0.06800
C618        C  0.49750541  0.80057970  0.77517406    -0.03300
Br619      Br  0.01199619  0.80720535  0.81820616    -0.01800
Br620      Br  0.43821588  0.83799411  0.79651701    -0.01900
Br621      Br  0.03856857  0.76523219  0.68876932    -0.01900
Br622      Br  0.46820516  0.80383127  0.66676504    -0.01900
C623        C  0.22471367  0.29206039  0.71379733    -0.03000
C624        C  0.20443742  0.30750905  0.73743613     0.06700
C625        C  0.21545204  0.30882551  0.76900309    -0.03100
C626        C  0.24582454  0.29247621  0.77708343    -0.03100
C627        C  0.26404526  0.27225656  0.75393301     0.06800
C628        C  0.25418747  0.27407474  0.72202143    -0.03300
Br629      Br  0.28101928  0.25169811  0.68927572    -0.01800
Br630      Br  0.21131241  0.29341479  0.67010291    -0.01900
Br631      Br  0.26169021  0.29593350  0.81988136    -0.01900
Br632      Br  0.18778736  0.32960954  0.80144141    -0.01900
C633        C  0.46608651  0.19138470  0.74105377    -0.03000
C634        C  0.45440520  0.19949443  0.77167088     0.06700
C635        C  0.47285602  0.22265770  0.79261838    -0.03100
C636        C  0.00033206  0.24278554  0.78190303    -0.03100
C637        C  0.01135759  0.23738236  0.75050238     0.06800
C638        C  0.99481654  0.21012963  0.73048555    -0.03300
Br639      Br  0.00937131  0.20219098  0.68781217    -0.01800
Br640      Br  0.44142357  0.15721349  0.71314191    -0.01900
Br641      Br  0.02051582  0.28007916  0.81073276    -0.01900
Br642      Br  0.45886804  0.22875690  0.83595609    -0.01900
C643        C  0.12673049  0.48670554  0.73910524    -0.03000
C644        C  0.10057697  0.46166696  0.74838874     0.06700
C645        C  0.07419551  0.47999395  0.76415147    -0.03100
C646        C  0.07401220  0.52218719  0.77009565    -0.03100
C647        C  0.09998994  0.54675489  0.76065499     0.06800
C648        C  0.12638228  0.52889341  0.74540735    -0.03300
Br649      Br  0.16160783  0.56290459  0.73216683    -0.01800
Br650      Br  0.16386194  0.46395192  0.71837862    -0.01900
Br651      Br  0.03808106  0.54650092  0.79187523    -0.01900
Br652      Br  0.03684798  0.44883855  0.77651772    -0.01900
C653        C  0.22481346  0.88150159  0.63610347    -0.03000
C654        C  0.23440747  0.87924262  0.60393803     0.06700
C655        C  0.26736460  0.88547047  0.59712791    -0.03100
C656        C  0.29027532  0.88675548  0.62192791    -0.03100
C657        C  0.28103472  0.87888267  0.65370007     0.06800
C658        C  0.24774636  0.87860009  0.66068627    -0.03300
Br659      Br  0.23201537  0.87222816  0.70341224    -0.01800
Br660      Br  0.18039209  0.89148981  0.64746692    -0.01900
Br661      Br  0.33417178  0.90118034  0.61174276    -0.01900
Br662      Br  0.28212552  0.89372236  0.55427491    -0.01900
C663        C  0.14172328  0.79150106  0.87739567    -0.03000
C664        C  0.13234925  0.75012229  0.87454185     0.06700
C665        C  0.13530856  0.72414850  0.90101091    -0.03100
C666        C  0.14965432  0.73821920  0.92873790    -0.03100
C667        C  0.15617923  0.78004933  0.93267603     0.06800
C668        C  0.15265166  0.80663795  0.90678175    -0.03300
Br669      Br  0.16241364  0.86356238  0.91160698    -0.01800
Br670      Br  0.14087848  0.82767246  0.84140545    -0.01900
Br671      Br  0.16239647  0.69860003  0.96033645    -0.01900
Br672      Br  0.11743807  0.66974222  0.90121231    -0.01900
C673        C  0.11316341  0.71839717  0.62342067    -0.03000
C674        C  0.13926384  0.74527421  0.62060744     0.06700
C675        C  0.15698028  0.75599417  0.64727840    -0.03100
C676        C  0.14522851  0.74712470  0.67745612    -0.03100
C677        C  0.11819345  0.72071692  0.68119472     0.06800
C678        C  0.10341777  0.70459756  0.65356500    -0.03300
Br679      Br  0.06809361  0.66660507  0.65593456    -0.01800
Br680      Br  0.09053292  0.70138174  0.58583832    -0.01900
Br681      Br  0.16624242  0.77520921  0.71195353    -0.01900
Br682      Br  0.19824603  0.78175197  0.64180579    -0.01900
C683        C  0.14514931  0.03054773  0.52130465    -0.03000
C684        C  0.16015864  0.04336956  0.99497224     0.06700
C685        C  0.17694778  0.01558821  0.97601065    -0.03100
C686        C  0.17642609  0.97477001  0.48161434    -0.03100
C687        C  0.16072933  0.95971573  0.50925763     0.06800
C688        C  0.14434519  0.98852734  0.52864767    -0.03300
Br689      Br  0.12028833  0.97253081  0.56568074    -0.01800
Br690      Br  0.12182286  0.06909644  0.54661996    -0.01900
Br691      Br  0.20871090  0.94070189  0.96161116    -0.01900
Br692      Br  0.19848189  0.03455118  0.93839186    -0.01900
C693        C  0.15108225  0.19952261  0.60177406    -0.03000
C694        C  0.15804247  0.22606376  0.57644186     0.06700
C695        C  0.15564375  0.26862251  0.58121901    -0.03100
C696        C  0.14211630  0.28401023  0.60882616    -0.03100
C697        C  0.13451998  0.25763159  0.63425337     0.06800
C698        C  0.13979622  0.21528041  0.63078719    -0.03300
Br699      Br  0.13294114  0.17851697  0.66577541    -0.01800
Br700      Br  0.15739395  0.14186622  0.59734097    -0.01900
Br701      Br  0.13260157  0.34186888  0.60962805    -0.01900
Br702      Br  0.17301954  0.30763428  0.55107983    -0.01900
C703        C  0.12509933  0.29062767  0.87844065    -0.03000
C704        C  0.12758293  0.24794270  0.88294959     0.06700
C705        C  0.11704599  0.22154859  0.85838249    -0.03100
C706        C  0.10343089  0.23758373  0.83089130    -0.03100
C707        C  0.10402686  0.27980065  0.82524114     0.06800
C708        C  0.11403351  0.30644007  0.84926947    -0.03300
Br709      Br  0.11314031  0.36435531  0.84195676    -0.01800
Br710      Br  0.13578207  0.32804973  0.91186593    -0.01900
Br711      Br  0.08279378  0.20082434  0.80120629    -0.01900
Br712      Br  0.12283612  0.16282853  0.85954698    -0.01900
C713        C  0.28281437  0.11534702  0.87667062    -0.03000
C714        C  0.27674118  0.13799897  0.84862444     0.06700
C715        C  0.24854050  0.16154917  0.84713488    -0.03100
C716        C  0.22905013  0.16610624  0.87403116    -0.03100
C717        C  0.23391877  0.14253894  0.90180435     0.06800
C718        C  0.26170709  0.11760099  0.90302476    -0.03300
Br719      Br  0.27256961  0.08829419  0.94112928    -0.01800
Br720      Br  0.31910539  0.07880362  0.87829190    -0.01900
Br721      Br  0.20106598  0.21227235  0.87439892    -0.01900
Br722      Br  0.23631513  0.18946130  0.80868008    -0.01900
C723        C  0.01847796  0.21557290  0.52642684    -0.03000
C724        C  0.49978015  0.23599448  0.50346601     0.06700
C725        C  0.01163206  0.24301464  0.97096803    -0.03100
C726        C  0.03958107  0.22282667  0.96143137    -0.03100
C727        C  0.05682560  0.19834130  0.98293783     0.06800
C728        C  0.04884655  0.19930300  0.51820915    -0.03300
Br729      Br  0.07636765  0.17638655  0.55031801    -0.01800
Br730      Br  0.50321144  0.21201408  0.56927715    -0.01900
Br731      Br  0.05493975  0.23025105  0.91890782    -0.01900
Br732      Br  0.49194776  0.28148228  0.94224763    -0.01900
C733        C  0.26190033  0.27299954  0.53495927    -0.03000
C734        C  0.25297445  0.27172783  0.50259475     0.06700
C735        C  0.27049537  0.28730361  0.97915669    -0.03100
C736        C  0.29960725  0.30567165  0.98906803    -0.03100
C737        C  0.30971377  0.31215568  0.52230401     0.06800
C738        C  0.28921282  0.29472367  0.54474219    -0.03300
Br739      Br  0.30029478  0.29846354  0.58906761    -0.01800
Br740      Br  0.23928323  0.24173555  0.56629247    -0.01900
Br741      Br  0.32874275  0.32727165  0.95820606    -0.01900
Br742      Br  0.26096984  0.28118074  0.93478717    -0.01900
C743        C  0.48583821  0.40103740  0.62374193    -0.03000
C744        C  0.48961480  0.37451391  0.59767730     0.06700
C745        C  0.01567051  0.34727714  0.59793885    -0.03100
C746        C  0.03368473  0.34137797  0.62557569    -0.03100
C747        C  0.03127148  0.36855858  0.65119045     0.06800
C748        C  0.50740416  0.39915753  0.64987023    -0.03300
Br749      Br  0.50413539  0.43825422  0.68352702    -0.01800
Br750      Br  0.45232397  0.44145818  0.62264023    -0.01900
Br751      Br  0.05627388  0.29070401  0.62999834    -0.01900
Br752      Br  0.02798383  0.31767530  0.56081994    -0.01900
C753        C  0.39678477  0.25318563  0.67890751    -0.03000
C754        C  0.37165672  0.22349076  0.68134914     0.06700
C755        C  0.35941275  0.20629054  0.65295247    -0.03100
C756        C  0.36927980  0.22176673  0.62334193    -0.03100
C757        C  0.39136668  0.25409035  0.62174959     0.06800
C758        C  0.40630485  0.26804012  0.64925855    -0.03300
Br759      Br  0.44077709  0.30724565  0.64585755    -0.01800
Br760      Br  0.41979359  0.27519143  0.71498408    -0.01900
Br761      Br  0.35184894  0.19956897  0.58470968    -0.01900
Br762      Br  0.32851365  0.16247474  0.65330031    -0.01900
C763        C  0.40009241  0.24082753  0.92672339    -0.03000
C764        C  0.40371336  0.28321572  0.93084623     0.06700
C765        C  0.39577518  0.30971932  0.90579173    -0.03100
C766        C  0.38372361  0.29367041  0.87705438    -0.03100
C767        C  0.37840992  0.25115301  0.87404227     0.06800
C768        C  0.38464829  0.22558922  0.90007403    -0.03300
Br769      Br  0.36891232  0.17022682  0.90153329    -0.01800
Br770      Br  0.41808631  0.20208180  0.95646343    -0.01900
Br771      Br  0.37414061  0.33047141  0.84270169    -0.01900
Br772      Br  0.40105832  0.36757919  0.91094326    -0.01900
C773        C  0.51027809  0.61772721  0.90302151    -0.03000
C774        C  0.48682493  0.64859947  0.90539225     0.06700
C775        C  0.98453155  0.67712173  0.88056519    -0.03100
C776        C  0.00238732  0.67271813  0.85268260    -0.03100
C777        C  0.02805862  0.64470142  0.85128629     0.06800
C778        C  0.53188257  0.61705047  0.87698143    -0.03300
Br779      Br  0.56524509  0.57638034  0.87594038    -0.01800
Br780      Br  0.51191065  0.57560319  0.93468465    -0.01900
Br781      Br  0.98997091  0.70523572  0.81665882    -0.01900
Br782      Br  0.96099311  0.72660714  0.88615225    -0.01900
C783        C  0.52060395  0.79497877  0.98242572    -0.03000
C784        C  0.49921154  0.77853331  0.50443352     0.06700
C785        C  0.00655591  0.78328641  0.53686806    -0.03100
C786        C  0.03619205  0.79985327  0.54632227    -0.03100
C787        C  0.05868516  0.81174792  0.52347515     0.06800
C788        C  0.05010619  0.81102972  0.49118261    -0.03300
Br789      Br  0.08006255  0.83267751  0.96178230    -0.01800
Br790      Br  0.50905707  0.79481099  0.93834874    -0.01900
Br791      Br  0.04713970  0.80382643  0.59060703    -0.01900
Br792      Br  0.97691868  0.76479695  0.56863620    -0.01900
C793        C  0.29490988  0.69166471  0.01307966    -0.03000
C794        C  0.30938133  0.70399933  0.98452428     0.06700
C795        C  0.29317268  0.73148518  0.96456837    -0.03100
C796        C  0.26175289  0.74143266  0.47354974    -0.03100
C797        C  0.25007610  0.73646526  0.50461729     0.06800
C798        C  0.26590774  0.71019168  0.02300134    -0.03300
Br799      Br  0.24738809  0.69629671  0.06322618    -0.01800
Br800      Br  0.31650395  0.65264206  0.03975839    -0.01900
Br801      Br  0.23920536  0.77394163  0.44288284    -0.01900
Br802      Br  0.31048744  0.74474606  0.92355020    -0.01900
C803        C  0.44322950  0.52735062  0.50678902    -0.03000
C804        C  0.41307718  0.54723853  0.99894192     0.06700
C805        C  0.38601876  0.52565460  0.49395251    -0.03100
C806        C  0.38573515  0.48317063  0.49916715    -0.03100
C807        C  0.41431924  0.46259036  0.50711421     0.06800
C808        C  0.44303592  0.48484551  0.51076114    -0.03300
Br809      Br  0.48250952  0.45729678  0.52172169    -0.01800
Br810      Br  0.48078179  0.55528782  0.01809258    -0.01900
Br811      Br  0.34633288  0.45279939  0.49509012    -0.01900
Br812      Br  0.34512088  0.55127764  0.98162109    -0.01900
C813        C  0.37833871  0.79562969  0.88022643    -0.03000
C814        C  0.38217639  0.75296908  0.88438692     0.06700
C815        C  0.37453071  0.72665607  0.85897306    -0.03100
C816        C  0.36113565  0.74228950  0.83126094    -0.03100
C817        C  0.35934848  0.78464121  0.82630417     0.06800
C818        C  0.36765103  0.81136174  0.85086383    -0.03300
Br819      Br  0.36502875  0.86925667  0.84387592    -0.01800
Br820      Br  0.38701886  0.83314377  0.91416824    -0.01900
Br821      Br  0.34411953  0.70440916  0.80049033    -0.01900
Br822      Br  0.38459439  0.66892950  0.85952545    -0.01900
C823        C  0.36703224  0.74383774  0.58150513    -0.03000
C824        C  0.39525211  0.71941413  0.57767958     0.06700
C825        C  0.41114527  0.70484945  0.60528301    -0.03100
C826        C  0.40213034  0.71971660  0.63522889    -0.03100
C827        C  0.37616648  0.74678934  0.63791958     0.06800
C828        C  0.35709774  0.75571746  0.61167692    -0.03300
Br829      Br  0.31703650  0.78448157  0.61768966    -0.01800
Br830      Br  0.34124757  0.76409816  0.54673639    -0.01900
Br831      Br  0.42562853  0.70397410  0.67272538    -0.01900
Br832      Br  0.44611288  0.66631794  0.60319839    -0.01900
O833        O  0.90301582  0.73844668  0.02393309    -0.82900
C834        C  0.96261050  0.65232453  0.43131059     0.96400
O835        O  0.97160568  0.65339354  0.46047823    -0.72100
O836        O  0.97448827  0.71484051  0.50181367    -0.75600
Al837      Al  0.94830611  0.66775396  0.99951389     1.49000
C838        C  0.97215966  0.75177165  0.49535453     0.91700
O839        O  0.90706661  0.75307213  0.43612992    -0.81900
O840        O  0.85633511  0.66172513  0.47376114    -0.75400
Al841      Al  0.90491997  0.74179207  0.48038503     1.90100
O842        O  0.87957738  0.70006925  0.42276180    -0.74500
O843        O  0.90266687  0.60566081  0.46552046    -0.74300
O844        O  0.93295351  0.65474178  0.42373313    -0.80000
O845        O  0.93200513  0.61496222  0.00583787    -0.78200
O846        O  0.91650948  0.68963369  0.47672711    -1.14300
O847        O  0.92643804  0.68127053  0.03822433    -0.73500
C848        C  0.90917147  0.71202425  0.04475778     0.97200
C849        C  0.88986209  0.73477903  0.41629158     0.93600
Al850      Al  0.89518689  0.65842892  0.44930758     1.55600
O851        O  0.94676563  0.76561902  0.48344145    -0.78200
C852        C  0.91610176  0.59224970  0.48970270     0.97700
C853        C  0.84357653  0.69590558  0.48009307     0.92600
O854        O  0.85981834  0.72866095  0.47901707    -0.83500
O855        O  0.89421037  0.28005132  0.48502316    -0.82900
C856        C  0.96081227  0.36560062  0.07750169     0.96400
O857        O  0.96864995  0.36440001  0.04836822    -0.72100
O858        O  0.97601356  0.29970183  0.01283471    -0.75600
Al859      Al  0.94754406  0.34401761  0.01028355     1.49000
C860        C  0.97182757  0.26202750  0.01196627     0.91700
O861        O  0.91098959  0.25543712  0.06928279    -0.81900
O862        O  0.85421212  0.34577402  0.03824376    -0.75400
Al863      Al  0.90371738  0.27026050  0.02684695     1.90100
O864        O  0.88399918  0.30648316  0.08901568    -0.74500
O865        O  0.89888608  0.40424132  0.04327475    -0.74300
O866        O  0.93205294  0.35952413  0.08614402    -0.80000
O867        O  0.92736341  0.39363551  0.49647125    -0.78200
O868        O  0.91558087  0.32205541  0.03266598    -1.14300
O869        O  0.93179808  0.32165746  0.46817991    -0.73500
C870        C  0.90946825  0.29614256  0.46282991     0.97200
C871        C  0.89572756  0.27116094  0.09163601     0.93600
Al872      Al  0.89413962  0.35144893  0.06144994     1.55600
O873        O  0.94469511  0.24733092  0.01751636    -0.78200
C874        C  0.91173331  0.41774598  0.01869138     0.97700
C875        C  0.84223497  0.31155254  0.03105358     0.92600
O876        O  0.85889329  0.27955494  0.03310446    -0.83500
O877        O  0.64843741  0.23140714  0.02058670    -0.82900
C878        C  0.71153677  0.14669307  0.42884877     0.96400
O879        O  0.72065018  0.14612626  0.45786228    -0.72100
O880        O  0.72774775  0.20807834  0.49743279    -0.75600
Al881      Al  0.69665968  0.16215281  0.99671074     1.49000
C882        C  0.72558382  0.24549355  0.49266108     0.91700
O883        O  0.65914417  0.25045567  0.43440754    -0.81900
O884        O  0.60617832  0.16173338  0.47276628    -0.75400
Al885      Al  0.65718067  0.23853626  0.47875755     1.90100
O886        O  0.63002523  0.19867898  0.42142645    -0.74500
O887        O  0.65079099  0.10350917  0.46368986    -0.74300
O888        O  0.68194833  0.15103940  0.42152231    -0.80000
O889        O  0.67698064  0.11105004  0.00575766    -0.78200
O890        O  0.66747524  0.18609961  0.47496624    -1.14300
O891        O  0.67916107  0.18104814  0.03703756    -0.73500
C892        C  0.66028263  0.21073109  0.04271869     0.97200
C893        C  0.64081474  0.23312174  0.41494863     0.93600
Al894      Al  0.64468539  0.15638762  0.44770299     1.55600
O895        O  0.69984991  0.26047733  0.48220374    -0.78200
C896        C  0.66393020  0.08899294  0.48762453     0.97700
C897        C  0.59455877  0.19653788  0.47940670     0.92600
O898        O  0.61168180  0.22839761  0.47781712    -0.83500
O899        O  0.64360025  0.78154533  0.48513697    -0.82900
C900        C  0.70958654  0.86900731  0.07909503     0.96400
O901        O  0.71544880  0.87194558  0.04954750    -0.72100
O902        O  0.72749810  0.80230153  0.02084228    -0.75600
Al903      Al  0.69706545  0.84376704  0.01253976     1.49000
C904        C  0.72376721  0.76499567  0.01555290     0.91700
O905        O  0.66273005  0.75392724  0.06967829    -0.81900
O906        O  0.60607262  0.84612677  0.04070863    -0.75400
Al907      Al  0.65418856  0.76982626  0.02773821     1.90100
O908        O  0.63445089  0.80362172  0.09010317    -0.74500
O909        O  0.65255508  0.90291046  0.04596625    -0.74300
O910        O  0.68318139  0.85419043  0.08805820    -0.80000
O911        O  0.67413476  0.88927811  0.49974828    -0.78200
O912        O  0.66601417  0.82083492  0.03459571    -1.14300
O913        O  0.68520035  0.81853126  0.47193313    -0.73500
C914        C  0.66199833  0.79536125  0.46441102     0.97200
C915        C  0.64687703  0.76856895  0.09211995     0.93600
Al916      Al  0.64556995  0.84944113  0.06379655     1.55600
O917        O  0.69613944  0.74928131  0.01657354    -0.78200
C918        C  0.66051945  0.91452630  0.01871022     0.97700
C919        C  0.59331013  0.81233748  0.03379293     0.92600
O920        O  0.60924432  0.77950169  0.03544715    -0.83500
O921        O  0.61614968  0.27601076  0.27311660    -0.82900
C922        C  0.55534894  0.36561432  0.17960375     0.96400
O923        O  0.54713050  0.36788089  0.20859165    -0.72100
O924        O  0.53732546  0.30062735  0.24086943    -0.75600
Al925      Al  0.56639943  0.34394189  0.24670857     1.49000
C926        C  0.54108194  0.26280775  0.24144200     0.91700
O927        O  0.60690157  0.25808061  0.18587187    -0.81900
O928        O  0.65943912  0.34881007  0.22341958    -0.75400
Al929      Al  0.61060816  0.27043808  0.22999673     1.90100
O930        O  0.63560517  0.31014567  0.17158578    -0.74500
O931        O  0.61266062  0.40559543  0.21537779    -0.74300
O932        O  0.58413285  0.35789147  0.17183870    -0.80000
O933        O  0.58840346  0.39190759  0.25894993    -0.78200
O934        O  0.59887651  0.32230081  0.22522059    -1.14300
O935        O  0.58058874  0.32228981  0.28673328    -0.73500
C936        C  0.60104839  0.29524324  0.29389874     0.97200
C937        C  0.62427121  0.27556221  0.16557035     0.93600
Al938      Al  0.62093132  0.35306178  0.19814914     1.55600
O939        O  0.56834333  0.24756410  0.23627002    -0.78200
C940        C  0.60168644  0.41726754  0.24129552     0.97700
C941        C  0.67206233  0.31435967  0.22933142     0.92600
O942        O  0.65583817  0.28181251  0.22707584    -0.83500
O943        O  0.61405006  0.73751777  0.23412524    -0.82900
C944        C  0.55291034  0.64768931  0.32474965     0.96400
O945        O  0.54456534  0.65333805  0.29581173    -0.72100
O946        O  0.54397210  0.71436366  0.25295604    -0.75600
Al947      Al  0.56913050  0.66696791  0.25797493     1.49000
C948        C  0.54510748  0.75077786  0.26133545     0.91700
O949        O  0.60981127  0.75192022  0.32195955    -0.81900
O950        O  0.66142023  0.66214838  0.28768265    -0.75400
Al951      Al  0.61130170  0.74027941  0.27827003     1.90100
O952        O  0.63313665  0.69670471  0.33837614    -0.74500
O953        O  0.61793360  0.60429786  0.29044637    -0.74300
O954        O  0.58246914  0.64745248  0.33294396    -0.80000
O955        O  0.58328493  0.61293073  0.25325440    -0.78200
O956        O  0.60040389  0.68756386  0.28188461    -1.14300
O957        O  0.59245420  0.67936702  0.21981315    -0.73500
C958        C  0.60884190  0.71097074  0.21335780     0.97200
C959        C  0.62469437  0.73274453  0.34296559     0.93600
Al960      Al  0.62149313  0.65574754  0.30954066     1.55600
O961        O  0.56906521  0.76344337  0.27636515    -0.78200
C962        C  0.60183865  0.59027186  0.26823353     0.97700
C963        C  0.67330659  0.69600771  0.27947466     0.92600
O964        O  0.65647851  0.72820115  0.27905775    -0.83500
O965        O  0.86337903  0.23406548  0.23380734    -0.82900
C966        C  0.80241213  0.14251500  0.32331483     0.96400
O967        O  0.79445522  0.14606260  0.29405965    -0.72100
O968        O  0.79165163  0.20869412  0.25294941    -0.75600
Al969      Al  0.81853124  0.16236485  0.25638565     1.49000
C970        C  0.79281270  0.24527836  0.26100689     0.91700
O971        O  0.85553603  0.24752588  0.32126164    -0.81900
O972        O  0.91011139  0.15909479  0.28649441    -0.75400
Al973      Al  0.85921860  0.23653497  0.27763373     1.90100
O974        O  0.88218739  0.19480483  0.33734500    -0.74500
O975        O  0.86628728  0.10050045  0.29084024    -0.74300
O976        O  0.83164526  0.14511162  0.33218512    -0.80000
O977        O  0.83545042  0.10972586  0.25058946    -0.78200
O978        O  0.84905548  0.18376134  0.28074517    -1.14300
O979        O  0.84107124  0.17715522  0.21808140    -0.73500
C980        C  0.85804823  0.20847516  0.21240455     0.97200
C981        C  0.87144615  0.22987243  0.34228805     0.93600
Al982      Al  0.87034263  0.15280440  0.30883421     1.55600
O983        O  0.81728524  0.25874264  0.27453950    -0.78200
C984        C  0.85228030  0.08666805  0.26717724     0.97700
C985        C  0.92168013  0.19356662  0.27930840     0.92600
O986        O  0.90445658  0.22545624  0.27972475    -0.83500
O987        O  0.87359299  0.78116476  0.27249238    -0.82900
C988        C  0.80550288  0.86600252  0.17830650     0.96400
O989        O  0.79926978  0.86778345  0.20772905    -0.72100
O990        O  0.78926022  0.79858598  0.23791665    -0.75600
Al991      Al  0.81836823  0.84194969  0.24506325     1.49000
C992        C  0.79410086  0.76157625  0.24355750     0.91700
O993        O  0.85532669  0.75229921  0.18925366    -0.81900
O994        O  0.91067810  0.84621666  0.21666357    -0.75400
Al995      Al  0.86355121  0.76953274  0.23098347     1.90100
O996        O  0.88182441  0.80299396  0.16777739    -0.74500
O997        O  0.86388693  0.90223232  0.21144772    -0.74300
O998        O  0.83268608  0.85341543  0.16945681    -0.80000
O999        O  0.84137067  0.88934611  0.25668349    -0.78200
O1000       O  0.85051452  0.82014582  0.22340540    -1.14300
O1001       O  0.83212254  0.81902837  0.28541440    -0.73500
C1002       C  0.85564173  0.79629328  0.29300724     0.97200
C1003       C  0.87043568  0.76734611  0.16636653     0.93600
Al1004     Al  0.87068283  0.84889493  0.19385614     1.55600
O1005       O  0.82220875  0.74738014  0.24269608    -0.78200
C1006       C  0.85379804  0.91424898  0.23783681     0.97700
C1007       C  0.92398012  0.81275440  0.22376832     0.92600
O1008       O  0.90826027  0.77982565  0.22283391    -0.83500
C1009       C  0.82449582  0.02041897  0.25830079    -0.03000
C1010       C  0.85348760  0.04252013  0.25996373     0.06700
C1011       C  0.88292989  0.02204581  0.25534374    -0.03100
C1012       C  0.88321473  0.98017910  0.24770447    -0.03100
C1013       C  0.85415967  0.95822653  0.24583729     0.06800
C1014       C  0.82481421  0.97865908  0.25120084    -0.03300
Br1015     Br  0.78440924  0.95035538  0.24740872    -0.01800
Br1016     Br  0.78405603  0.04670636  0.26766871    -0.01900
Br1017     Br  0.92338015  0.95264859  0.24031229    -0.01900
Br1018     Br  0.92282800  0.05133432  0.25922796    -0.01900
C1019       C  0.71985975  0.69385307  0.24160725    -0.03000
C1020       C  0.70790584  0.70016764  0.27237115     0.06700
C1021       C  0.72732202  0.71954214  0.29488694    -0.03100
C1022       C  0.75616457  0.73817944  0.28570022    -0.03100
C1023       C  0.76670828  0.73591709  0.25400511     0.06800
C1024       C  0.74934425  0.71173844  0.23241824    -0.03300
Br1025     Br  0.76502636  0.70544687  0.18995315    -0.01800
Br1026     Br  0.69499889  0.66270886  0.21182403    -0.01900
Br1027     Br  0.77953840  0.76875645  0.31680876    -0.01900
Br1028     Br  0.71359303  0.72122333  0.33843048    -0.01900
C1029       C  0.96863871  0.81413215  0.26382851    -0.03000
C1030       C  0.95843021  0.81026721  0.23212013     0.06700
C1031       C  0.98001070  0.79571549  0.20944421    -0.03100
C1032       C  0.50980852  0.77958189  0.21897573    -0.03100
C1033       C  0.51838653  0.77815493  0.25132867     0.06800
C1034       C  0.99902514  0.79896244  0.27335642    -0.03300
Br1035     Br  0.51344541  0.80540182  0.31637535    -0.01800
Br1036     Br  0.94020012  0.83815740  0.29429022    -0.01900
Br1037     Br  0.53907600  0.76013450  0.18739453    -0.01900
Br1038     Br  0.96799386  0.79664585  0.16533392    -0.01900
C1039       C  0.72669149  0.29451761  0.21272561    -0.03000
C1040       C  0.70664355  0.30984230  0.23655152     0.06700
C1041       C  0.71794781  0.31100143  0.26802458    -0.03100
C1042       C  0.74805128  0.29362112  0.27589090    -0.03100
C1043       C  0.76558944  0.27248658  0.25263372     0.06800
C1044       C  0.75575633  0.27525271  0.22073045    -0.03300
Br1045     Br  0.78216592  0.25282849  0.18770305    -0.01800
Br1046     Br  0.71344780  0.29843187  0.16906631    -0.01900
Br1047     Br  0.76446207  0.29729264  0.31850439    -0.01900
Br1048     Br  0.69120374  0.33378719  0.30049581    -0.01900
C1049       C  0.96965732  0.18916164  0.24306506    -0.03000
C1050       C  0.95624931  0.19917481  0.27263826     0.06700
C1051       C  0.97353324  0.22406914  0.29341906    -0.03100
C1052       C  0.50132349  0.24416148  0.28321405    -0.03100
C1053       C  0.51367185  0.23730185  0.25250787     0.06800
C1054       C  0.49868332  0.20783388  0.23317843    -0.03300
Br1055     Br  0.51613449  0.19584511  0.19221488    -0.01800
Br1056     Br  0.94709767  0.15212662  0.21566436    -0.01900
Br1057     Br  0.52088737  0.28227087  0.31182929    -0.01900
Br1058     Br  0.95801091  0.23179569  0.33600720    -0.01900
C1059       C  0.63022772  0.48517884  0.24298291    -0.03000
C1060       C  0.60289614  0.46116890  0.25009724     0.06700
C1061       C  0.57567972  0.48017572  0.26372594    -0.03100
C1062       C  0.57548444  0.52243840  0.26894902    -0.03100
C1063       C  0.60254517  0.54617277  0.26148683     0.06800
C1064       C  0.63002495  0.52745278  0.24884735    -0.03300
Br1065     Br  0.66694296  0.56017496  0.23853475    -0.01800
Br1066     Br  0.66869710  0.46039499  0.22641090    -0.01900
Br1067     Br  0.53788691  0.54810723  0.28672274    -0.01900
Br1068     Br  0.53755610  0.44963482  0.27444951    -0.01900
C1069       C  0.72445914  0.88315609  0.13624175    -0.03000
C1070       C  0.73385453  0.88077768  0.10405348     0.06700
C1071       C  0.76680735  0.88601041  0.09711579    -0.03100
C1072       C  0.79002158  0.88479472  0.12166557    -0.03100
C1073       C  0.78072773  0.87743751  0.15358363     0.06800
C1074       C  0.74746609  0.87968910  0.16076444    -0.03300
Br1075     Br  0.73174926  0.87684704  0.20371903    -0.01800
Br1076     Br  0.68011687  0.89393214  0.14750914    -0.01900
Br1077     Br  0.83444990  0.89487721  0.11059669    -0.01900
Br1078     Br  0.78085467  0.89715787  0.05442757    -0.01900
C1079       C  0.64913498  0.78945510  0.37498683    -0.03000
C1080       C  0.63312451  0.75155160  0.37336427     0.06700
C1081       C  0.62975318  0.72790753  0.40079872    -0.03100
C1082       C  0.64427822  0.74023006  0.42878908    -0.03100
C1083       C  0.65622263  0.78030884  0.43189601     0.06800
C1084       C  0.65947720  0.80463939  0.40455465    -0.03300
Br1085     Br  0.67888589  0.85756578  0.40690567    -0.01800
Br1086     Br  0.65886502  0.81929739  0.33685310    -0.01900
Br1087     Br  0.65148485  0.69909877  0.46086509    -0.01900
Br1088     Br  0.60383340  0.67914699  0.40116166    -0.01900
C1089       C  0.61605726  0.71822621  0.12371045    -0.03000
C1090       C  0.64212395  0.74504095  0.12102315     0.06700
C1091       C  0.66072369  0.75460190  0.14737322    -0.03100
C1092       C  0.64983469  0.74430853  0.17757968    -0.03100
C1093       C  0.62221431  0.71877909  0.18123415     0.06800
C1094       C  0.60674459  0.70370179  0.15365496    -0.03300
Br1095     Br  0.57114691  0.66609239  0.15574006    -0.01800
Br1096     Br  0.59275434  0.70248731  0.08617419    -0.01900
Br1097     Br  0.67286757  0.76920129  0.21236027    -0.01900
Br1098     Br  0.70153621  0.78152431  0.14140789    -0.01900
C1099       C  0.64150269  0.02883694  0.02010802    -0.03000
C1100       C  0.66114476  0.04468699  0.49431368     0.06700
C1101       C  0.67477605  0.01638435  0.47345758    -0.03100
C1102       C  0.67802677  0.97401281  0.98409389    -0.03100
C1103       C  0.65897890  0.95869564  0.00942773     0.06800
C1104       C  0.63983366  0.98674841  0.02668616    -0.03300
Br1105     Br  0.60996685  0.96888717  0.05873793    -0.01800
Br1106     Br  0.61684093  0.06685041  0.04453812    -0.01900
Br1107     Br  0.70334284  0.94105220  0.45532706    -0.01900
Br1108     Br  0.69080642  0.03471535  0.43299436    -0.01900
C1109       C  0.64796109  0.19911014  0.10124503    -0.03000
C1110       C  0.65254758  0.22544184  0.07520208     0.06700
C1111       C  0.64791488  0.26791944  0.07950507    -0.03100
C1112       C  0.63596086  0.28303746  0.10798067    -0.03100
C1113       C  0.63198298  0.25704829  0.13436609     0.06800
C1114       C  0.63840714  0.21494557  0.13090112    -0.03300
Br1115     Br  0.63569940  0.17879015  0.16680558    -0.01800
Br1116     Br  0.65456640  0.14146744  0.09667861    -0.01900
Br1117     Br  0.62369562  0.33998098  0.10912659    -0.01900
Br1118     Br  0.66034585  0.30777049  0.04767543    -0.01900
C1119       C  0.62606954  0.29372758  0.38033115    -0.03000
C1120       C  0.63105228  0.25131990  0.38424596     0.06700
C1121       C  0.62296810  0.22470040  0.35912352    -0.03100
C1122       C  0.60808677  0.23981997  0.33205996    -0.03100
C1123       C  0.60661275  0.28198676  0.32667156     0.06800
C1124       C  0.61491135  0.30911756  0.35103138    -0.03300
Br1125     Br  0.61117957  0.36691996  0.34418844    -0.01800
Br1126     Br  0.63337238  0.33094798  0.41473954    -0.01900
Br1127     Br  0.58813964  0.20191095  0.30295545    -0.01900
Br1128     Br  0.63446183  0.16747572  0.35894625    -0.01900
C1129       C  0.78236256  0.11372721  0.37569970    -0.03000
C1130       C  0.77721078  0.13840263  0.34852024     0.06700
C1131       C  0.75041376  0.16461841  0.34829357    -0.03100
C1132       C  0.73205883  0.17004739  0.37579860    -0.03100
C1133       C  0.73557968  0.14406128  0.40228122     0.06800
C1134       C  0.76143363  0.11605693  0.40216243    -0.03300
Br1135     Br  0.76940467  0.08206205  0.43854144    -0.01800
Br1136     Br  0.81694096  0.07458428  0.37596648    -0.01900
Br1137     Br  0.70821080  0.21972814  0.37932224    -0.01900
Br1138     Br  0.73799536  0.19407351  0.31070295    -0.01900
C1139       C  0.51301528  0.20610151  0.02089566    -0.03000
C1140       C  0.99874455  0.23595748  0.00128053     0.06700
C1141       C  0.51018318  0.23647425  0.47177671    -0.03100
C1142       C  0.54016911  0.22006369  0.46356437    -0.03100
C1143       C  0.56009389  0.20238867  0.48682359     0.06800
C1144       C  0.54305665  0.18912038  0.01248724    -0.03300
Br1145     Br  0.56675178  0.15707283  0.04265077    -0.01800
Br1146     Br  0.99216098  0.18947092  0.05940742    -0.01900
Br1147     Br  0.55510006  0.22521128  0.42061211    -0.01900
Br1148     Br  0.98401127  0.26113053  0.43931003    -0.01900
C1149       C  0.75783438  0.27257630  0.03415930    -0.03000
C1150       C  0.74967168  0.26999353  0.00166386     0.06700
C1151       C  0.77180056  0.29289423  0.48029617    -0.03100
C1152       C  0.80046862  0.31246769  0.49008253    -0.03100
C1153       C  0.80816883  0.30658443  0.02147860     0.06800
C1154       C  0.78656587  0.29134593  0.04393845    -0.03300
Br1155     Br  0.79788139  0.29341982  0.08827695    -0.01800
Br1156     Br  0.73173528  0.24683664  0.06578212    -0.01900
Br1157     Br  0.82831462  0.33718066  0.45931089    -0.01900
Br1158     Br  0.76044579  0.29066549  0.43613682    -0.01900
C1159       C  0.98758157  0.40191414  0.12404143    -0.03000
C1160       C  0.98636350  0.36923236  0.10233646     0.06700
C1161       C  0.50692448  0.33591784  0.10728825    -0.03100
C1162       C  0.52766125  0.33437601  0.13346514    -0.03100
C1163       C  0.53070572  0.36784102  0.15391733     0.06800
C1164       C  0.01030204  0.40168283  0.14929313    -0.03300
Br1165     Br  0.01370514  0.44752110  0.17733329    -0.01800
Br1166     Br  0.95839457  0.44689772  0.11906029    -0.01900
Br1167     Br  0.54847676  0.28362485  0.14349852    -0.01900
Br1168     Br  0.50502437  0.28980683  0.07987853    -0.01900
C1169       C  0.89754111  0.24645648  0.17811494    -0.03000
C1170       C  0.87207047  0.21746639  0.18061484     0.06700
C1171       C  0.85933951  0.20053002  0.15235326    -0.03100
C1172       C  0.86932075  0.21575703  0.12272720    -0.03100
C1173       C  0.89099884  0.24850428  0.12120417     0.06800
C1174       C  0.90624916  0.26215529  0.14862000    -0.03300
Br1175     Br  0.93965451  0.30256192  0.14563732    -0.01800
Br1176     Br  0.92194250  0.26638977  0.21399608    -0.01900
Br1177     Br  0.85275347  0.19269260  0.08406017    -0.01900
Br1178     Br  0.82721661  0.15817971  0.15298310    -0.01900
C1179       C  0.89276159  0.23942940  0.42790838    -0.03000
C1180       C  0.90129334  0.28102021  0.43085065     0.06700
C1181       C  0.89905425  0.30672004  0.40417578    -0.03100
C1182       C  0.88852062  0.29072754  0.37491226    -0.03100
C1183       C  0.87854310  0.24957769  0.37285665     0.06800
C1184       C  0.87903270  0.22502478  0.40006075    -0.03300
Br1185     Br  0.85880826  0.17204184  0.40046191    -0.01800
Br1186     Br  0.90229795  0.19960297  0.46053809    -0.01900
Br1187     Br  0.88877719  0.32521069  0.33792136    -0.01900
Br1188     Br  0.90999872  0.36354428  0.40754130    -0.01900
C1189       C  0.01059817  0.61951163  0.40291737    -0.03000
C1190       C  0.98664373  0.64995316  0.40462465     0.06700
C1191       C  0.48380394  0.67709854  0.37878400    -0.03100
C1192       C  0.50196545  0.67196489  0.35104211    -0.03100
C1193       C  0.52786070  0.64430193  0.35035076     0.06800
C1194       C  0.03168338  0.61753446  0.37649551    -0.03300
Br1195     Br  0.06410944  0.57564952  0.37504361    -0.01800
Br1196     Br  0.01416782  0.57989274  0.43625298    -0.01900
Br1197     Br  0.48984498  0.70267731  0.31398512    -0.01900
Br1198     Br  0.45919530  0.72608061  0.38271303    -0.01900
C1199       C  0.02049610  0.79402089  0.48161566    -0.03000
C1200       C  0.99975734  0.77766867  0.00488233     0.06700
C1201       C  0.50693027  0.78171492  0.03736639    -0.03100
C1202       C  0.53671600  0.79737662  0.04715647    -0.03100
C1203       C  0.55927894  0.80958174  0.02451789     0.06800
C1204       C  0.55049563  0.81086917  0.99229839    -0.03300
Br1205     Br  0.57972490  0.83134278  0.46008284    -0.01800
Br1206     Br  0.01057762  0.78798629  0.43740075    -0.01900
Br1207     Br  0.54741257  0.80056046  0.09152595    -0.01900
Br1208     Br  0.47607892  0.76555632  0.06868205    -0.01900
C1209       C  0.79528156  0.69069134  0.51583741    -0.03000
C1210       C  0.80872129  0.70019659  0.48613826     0.06700
C1211       C  0.79080369  0.72350195  0.46448077    -0.03100
C1212       C  0.76498067  0.75052488  0.97460076    -0.03100
C1213       C  0.75165615  0.74104221  0.00437060     0.06800
C1214       C  0.76611835  0.70935550  0.52530272    -0.03300
Br1215     Br  0.74946986  0.70050184  0.56714193    -0.01800
Br1216     Br  0.81818900  0.65492508  0.54416999    -0.01900
Br1217     Br  0.74611611  0.79093499  0.94717355    -0.01900
Br1218     Br  0.80697840  0.73278223  0.42235340    -0.01900
C1219       C  0.94067102  0.52680968  0.01088652    -0.03000
C1220       C  0.91491150  0.54801604  0.49738298     0.06700
C1221       C  0.88431520  0.52450628  0.99471917    -0.03100
C1222       C  0.88363274  0.48222853  0.00128689    -0.03100
C1223       C  0.91151614  0.46212750  0.01195324     0.06800
C1224       C  0.93981733  0.48471392  0.01707083    -0.03300
Br1225     Br  0.97785684  0.45802684  0.03318845    -0.01800
Br1226     Br  0.98293483  0.55637544  0.51430829    -0.01900
Br1227     Br  0.84472927  0.45133732  0.99519361    -0.01900
Br1228     Br  0.84624007  0.55328555  0.48425845    -0.01900
C1229       C  0.87613062  0.79455189  0.38058534    -0.03000
C1230       C  0.88130402  0.75227074  0.38503558     0.06700
C1231       C  0.87601162  0.72533205  0.35944116    -0.03100
C1232       C  0.86444538  0.74015786  0.33071553    -0.03100
C1233       C  0.86132913  0.78240781  0.32561697     0.06800
C1234       C  0.86715283  0.80963789  0.35052917    -0.03300
Br1235     Br  0.86407063  0.86737995  0.34304603    -0.01800
Br1236     Br  0.87964767  0.83201346  0.41540861    -0.01900
Br1237     Br  0.85174614  0.70103747  0.29885345    -0.01900
Br1238     Br  0.88625681  0.66765722  0.36150749    -0.01900
C1239       C  0.86722320  0.74252243  0.08085194    -0.03000
C1240       C  0.89572517  0.71874337  0.07706058     0.06700
C1241       C  0.91168569  0.70411369  0.10461801    -0.03100
C1242       C  0.90172978  0.71743975  0.13469201    -0.03100
C1243       C  0.87535795  0.74383876  0.13745581     0.06800
C1244       C  0.85661308  0.75320280  0.11107053    -0.03300
Br1245     Br  0.81596982  0.78061835  0.11698626    -0.01800
Br1246     Br  0.84223316  0.76381246  0.04595266    -0.01900
Br1247     Br  0.92435900  0.70032855  0.17235385    -0.01900
Br1248     Br  0.94865420  0.66866147  0.10231188    -0.01900
O1249       O  0.90140658  0.73820534  0.52434152    -0.82900
C1250       C  0.96284702  0.65046526  0.93187812     0.96400
O1251       O  0.97199152  0.65307237  0.96087506    -0.72100
O1252       O  0.97448800  0.71409634  0.00289731    -0.75600
Al1253     Al  0.94829405  0.66865962  0.49960146     1.49000
C1254       C  0.97291538  0.75078872  0.99535184     0.91700
O1255       O  0.90804337  0.75270141  0.93549963    -0.81900
O1256       O  0.85584158  0.66328225  0.97245707    -0.75400
Al1257     Al  0.90619743  0.74156684  0.97965923     1.90100
O1258       O  0.88127531  0.69946079  0.92146352    -0.74500
O1259       O  0.90050812  0.60500109  0.96663363    -0.74300
O1260       O  0.93316092  0.65172502  0.92422037    -0.80000
O1261       O  0.93157778  0.61612185  0.50664628    -0.78200
O1262       O  0.91682420  0.68896749  0.97628251    -1.14300
O1263       O  0.92709270  0.68280241  0.53882260    -0.73500
C1264       C  0.90868684  0.71255651  0.54530787     0.97200
C1265       C  0.89113839  0.73453203  0.91539741     0.93600
Al1266     Al  0.89508183  0.65775719  0.94902475     1.55600
O1267       O  0.94828643  0.76440032  0.98194615    -0.78200
C1268       C  0.91492220  0.59135241  0.99022462     0.97700
C1269       C  0.84403869  0.69795609  0.97878745     0.92600
O1270       O  0.86122823  0.72983925  0.97846738    -0.83500
O1271       O  0.89539195  0.27867384  0.98457530    -0.82900
C1272       C  0.96355732  0.36883022  0.57367026     0.96400
O1273       O  0.97011623  0.36789818  0.54422019    -0.72100
O1274       O  0.97682000  0.30015087  0.51238900    -0.75600
Al1275     Al  0.94851880  0.34428253  0.50752367     1.49000
C1276       C  0.97240546  0.26251937  0.51234611     0.91700
O1277       O  0.91221226  0.25921497  0.56978379    -0.81900
O1278       O  0.85671144  0.35054853  0.53715327    -0.75400
Al1279     Al  0.90409237  0.27263641  0.52706307     1.90100
O1280       O  0.88579300  0.31142233  0.58843630    -0.74500
O1281       O  0.90322643  0.40680297  0.54061173    -0.74300
O1282       O  0.93534987  0.36178989  0.58347826    -0.80000
O1283       O  0.92721716  0.39436171  0.00114518    -0.78200
O1284       O  0.91701234  0.32404223  0.53131270    -1.14300
O1285       O  0.93107131  0.32450142  0.96986072    -0.73500
C1286       C  0.91024668  0.29744315  0.96329562     0.97200
C1287       C  0.89697317  0.27588904  0.59180365     0.93600
Al1288     Al  0.89694548  0.35505062  0.55981903     1.55600
O1289       O  0.94484391  0.24831692  0.51707932    -0.78200
C1290       C  0.91424444  0.41855751  0.51466171     0.97700
C1291       C  0.84387440  0.31643789  0.53122837     0.92600
O1292       O  0.85972070  0.28386315  0.53431396    -0.83500
O1293       O  0.65381315  0.23395570  0.52209231    -0.82900
C1294       C  0.70951440  0.14471831  0.92833352     0.96400
O1295       O  0.71804205  0.14353896  0.95757213    -0.72100
O1296       O  0.72484742  0.20649342  0.99569785    -0.75600
Al1297     Al  0.69955560  0.16345375  0.49714976     1.49000
C1298       C  0.72210339  0.24398531  0.99190106     0.91700
O1299       O  0.65664870  0.24715941  0.93290418    -0.81900
O1300       O  0.60384209  0.15762929  0.97150756    -0.75400
Al1301     Al  0.65350377  0.23586329  0.97741259     1.90100
O1302       O  0.62745349  0.19529995  0.92034321    -0.74500
O1303       O  0.65008619  0.10076687  0.96292091    -0.74300
O1304       O  0.68002899  0.14901771  0.92070999    -0.80000
O1305       O  0.68034447  0.11160933  0.50505110    -0.78200
O1306       O  0.66465447  0.18379648  0.97405791    -1.14300
O1307       O  0.68214950  0.18080720  0.53761190    -0.73500
C1308       C  0.66488989  0.21179096  0.54379283     0.97200
C1309       C  0.63805322  0.22977052  0.91361243     0.93600
Al1310     Al  0.64266629  0.15328320  0.94667903     1.55600
O1311       O  0.69587923  0.25890384  0.98249958    -0.78200
C1312       C  0.66213891  0.08743831  0.98782180     0.97700
C1313       C  0.59154427  0.19245269  0.97689098     0.92600
O1314       O  0.60831846  0.22461033  0.97506325    -0.83500
O1315       O  0.64406088  0.77975645  0.98598649    -0.82900
C1316       C  0.71027640  0.86739536  0.57883973     0.96400
O1317       O  0.71675400  0.86939844  0.54942048    -0.72100
O1318       O  0.72736369  0.79920254  0.52037847    -0.75600
Al1319     Al  0.69811545  0.84246317  0.51222958     1.49000
C1320       C  0.72262888  0.76201131  0.51515621     0.91700
O1321       O  0.66035198  0.75298903  0.56891752    -0.81900
O1322       O  0.60611504  0.84745827  0.53970905    -0.75400
Al1323     Al  0.65301078  0.77011473  0.52680648     1.90100
O1324       O  0.63375319  0.80414701  0.58935141    -0.74500
O1325       O  0.65351338  0.90291900  0.54507167    -0.74300
O1326       O  0.68336364  0.85375648  0.58751445    -0.80000
O1327       O  0.67131811  0.88859062  0.99991454    -0.78200
O1328       O  0.66606350  0.82061847  0.53397938    -1.14300
O1329       O  0.68439805  0.81888078  0.97253003    -0.73500
C1330       C  0.66180948  0.79470312  0.96518875     0.97200
C1331       C  0.64477613  0.76831938  0.59135221     0.93600
Al1332     Al  0.64577138  0.84972300  0.56296955     1.55600
O1333       O  0.69450947  0.74771981  0.51581681    -0.78200
C1334       C  0.66254073  0.91507383  0.51830228     0.97700
C1335       C  0.59281640  0.81404094  0.53265779     0.92600
O1336       O  0.60830362  0.78093725  0.53414986    -0.83500
O1337       O  0.61232099  0.27306783  0.77153059    -0.82900
C1338       C  0.55482031  0.36455209  0.67787195     0.96400
O1339       O  0.54574626  0.36615239  0.70671972    -0.72100
O1340       O  0.53575133  0.30034253  0.74067071    -0.75600
Al1341     Al  0.56483035  0.34346449  0.74552273     1.49000
C1342       C  0.53882357  0.26254323  0.73943805     0.91700
O1343       O  0.60565835  0.25842132  0.68377443    -0.81900
O1344       O  0.65776037  0.34747500  0.72421232    -0.75400
Al1345     Al  0.60813366  0.26928011  0.72822877     1.90100
O1346       O  0.63560229  0.31012838  0.67178113    -0.74500
O1347       O  0.61138945  0.40517371  0.71454363    -0.74300
O1348       O  0.58395111  0.35753843  0.67083496    -0.80000
O1349       O  0.58625793  0.39208252  0.75749056    -0.78200
O1350       O  0.59720144  0.32154098  0.72423134    -1.14300
O1351       O  0.57947416  0.32231676  0.78564997    -0.73500
C1352       C  0.59856285  0.29348999  0.79251442     0.97200
C1353       C  0.62453005  0.27582423  0.66481606     0.93600
Al1354     Al  0.62001933  0.35244933  0.69794530     1.55600
O1355       O  0.56554959  0.24689985  0.73267950    -0.78200
C1356       C  0.59969666  0.41738391  0.73994095     0.97700
C1357       C  0.67000282  0.31265044  0.72983376     0.92600
O1358       O  0.65355678  0.28031004  0.72697426    -0.83500
O1359       O  0.60909411  0.73960391  0.73421148    -0.82900
C1360       C  0.55233757  0.64812562  0.82503990     0.96400
O1361       O  0.54296234  0.65612117  0.79673639    -0.72100
O1362       O  0.54230533  0.71621388  0.75231560    -0.75600
Al1363     Al  0.56678392  0.66817763  0.75852023     1.49000
C1364       C  0.54283811  0.75180838  0.76266461     0.91700
O1365       O  0.60823639  0.75160589  0.82310220    -0.81900
O1366       O  0.66042595  0.66526618  0.78585305    -0.75400
Al1367     Al  0.60823107  0.74136651  0.77899010     1.90100
O1368       O  0.63211329  0.69630514  0.83794372    -0.74500
O1369       O  0.61826101  0.60563907  0.78728106    -0.74300
O1370       O  0.58222710  0.64566997  0.83202175    -0.80000
O1371       O  0.57884459  0.61315681  0.75487403    -0.78200
O1372       O  0.59855788  0.68840395  0.78187264    -1.14300
O1373       O  0.59032993  0.67950104  0.72022068    -0.73500
C1374       C  0.60512442  0.71237728  0.71350339     0.97200
C1375       C  0.62341472  0.73196845  0.84366188     0.93600
Al1376     Al  0.62089780  0.65625680  0.80810638     1.55600
O1377       O  0.56573914  0.76290817  0.77973636    -0.78200
C1378       C  0.59939168  0.59093571  0.76753802     0.97700
C1379       C  0.67113161  0.69982224  0.77772464     0.92600
O1380       O  0.65335994  0.73108768  0.77778968    -0.83500
O1381       O  0.86375654  0.23739706  0.73524952    -0.82900
C1382       C  0.80227443  0.14341737  0.82384220     0.96400
O1383       O  0.79511339  0.14478876  0.79419698    -0.72100
O1384       O  0.79059167  0.20920004  0.75516591    -0.75600
Al1385     Al  0.81866955  0.16424114  0.75657787     1.49000
C1386       C  0.79168935  0.24607240  0.76238398     0.91700
O1387       O  0.85361289  0.24862999  0.82281891    -0.81900
O1388       O  0.90834447  0.16020871  0.78632484    -0.75400
Al1389     Al  0.85843068  0.23873930  0.77887858     1.90100
O1390       O  0.88252291  0.19734142  0.83750128    -0.74500
O1391       O  0.86351700  0.10237845  0.79275252    -0.74300
O1392       O  0.83096140  0.14907801  0.83343512    -0.80000
O1393       O  0.83824887  0.11330335  0.74909684    -0.78200
O1394       O  0.84834024  0.18601458  0.78139314    -1.14300
O1395       O  0.84027835  0.18212442  0.71821998    -0.73500
C1396       C  0.85778537  0.21319358  0.71314216     0.97200
C1397       C  0.87066234  0.23160373  0.84333830     0.93600
Al1398     Al  0.86925889  0.15512462  0.80965580     1.55600
O1399       O  0.81644205  0.26064053  0.77477751    -0.78200
C1400       C  0.85234124  0.08943310  0.76738683     0.97700
C1401       C  0.92017057  0.19469471  0.77947085     0.92600
O1402       O  0.90364644  0.22717558  0.78141987    -0.83500
O1403       O  0.87162429  0.78258219  0.77325017    -0.82900
C1404       C  0.80597702  0.86867172  0.67841832     0.96400
O1405       O  0.79998848  0.87190324  0.70782783    -0.72100
O1406       O  0.78877583  0.80330946  0.73811004    -0.75600
Al1407     Al  0.81849729  0.84577342  0.74535726     1.49000
C1408       C  0.79283331  0.76592692  0.74266773     0.91700
O1409       O  0.85537585  0.75548698  0.68934775    -0.81900
O1410       O  0.91026259  0.84914454  0.71754108    -0.75400
Al1411     Al  0.86260337  0.77222747  0.73134043     1.90100
O1412       O  0.88271102  0.80574583  0.66853333    -0.74500
O1413       O  0.86365636  0.90527796  0.71126508    -0.74300
O1414       O  0.83303748  0.85557764  0.66959346    -0.80000
O1415       O  0.84237253  0.89242420  0.75702348    -0.78200
O1416       O  0.85030654  0.82313279  0.72382631    -1.14300
O1417       O  0.83149185  0.82271383  0.78588063    -0.73500
C1418       C  0.85410062  0.79870142  0.79364842     0.97200
C1419       C  0.87118302  0.77024623  0.66685530     0.93600
Al1420     Al  0.87080147  0.85163083  0.69426776     1.55600
O1421       O  0.82063612  0.75075594  0.74155262    -0.78200
C1422       C  0.85414109  0.91738562  0.73783216     0.97700
C1423       C  0.92325760  0.81569803  0.72521336     0.92600
O1424       O  0.90752246  0.78270545  0.72451344    -0.83500
C1425       C  0.82477333  0.02296002  0.75992779    -0.03000
C1426       C  0.85354377  0.04548277  0.76003018     0.06700
C1427       C  0.88285232  0.02575958  0.75355680    -0.03100
C1428       C  0.88319607  0.98402121  0.74563053    -0.03100
C1429       C  0.85438001  0.96138916  0.74568706     0.06800
C1430       C  0.82513886  0.98120411  0.75284368    -0.03300
Br1431     Br  0.78483487  0.95222891  0.75135336    -0.01800
Br1432     Br  0.78471479  0.04895880  0.77097420    -0.01900
Br1433     Br  0.92314667  0.95780334  0.73506399    -0.01900
Br1434     Br  0.92242487  0.05599601  0.75570863    -0.01900
C1435       C  0.71792320  0.69921804  0.73996917    -0.03000
C1436       C  0.70548753  0.70610734  0.77049185     0.06700
C1437       C  0.72404305  0.72735289  0.79273793    -0.03100
C1438       C  0.75330867  0.74506485  0.78389415    -0.03100
C1439       C  0.76483538  0.74109711  0.75267400     0.06800
C1440       C  0.74771129  0.71661645  0.73109430    -0.03300
Br1441     Br  0.76421286  0.70912412  0.68905006    -0.01800
Br1442     Br  0.69314951  0.66841777  0.70989213    -0.01900
Br1443     Br  0.77625856  0.77635846  0.81493684    -0.01900
Br1444     Br  0.70837030  0.73388458  0.83534784    -0.01900
C1445       C  0.96721557  0.81587945  0.76572875    -0.03000
C1446       C  0.95749277  0.81334527  0.73382985     0.06700
C1447       C  0.97939722  0.80016720  0.71098777    -0.03100
C1448       C  0.50888106  0.78326803  0.72049470    -0.03100
C1449       C  0.51679238  0.78014100  0.75292963     0.06800
C1450       C  0.99750832  0.80059302  0.77516654    -0.03300
Br1451     Br  0.51197848  0.80717547  0.81821976    -0.01800
Br1452     Br  0.93822425  0.83800428  0.79652358    -0.01900
Br1453     Br  0.53860915  0.76528328  0.68878523    -0.01900
Br1454     Br  0.96818648  0.80385638  0.66676465    -0.01900
C1455       C  0.72471634  0.29209982  0.71373816    -0.03000
C1456       C  0.70444152  0.30753319  0.73738422     0.06700
C1457       C  0.71546029  0.30884578  0.76894943    -0.03100
C1458       C  0.74584095  0.29251813  0.77701925    -0.03100
C1459       C  0.76405314  0.27229444  0.75386553     0.06800
C1460       C  0.75419038  0.27411089  0.72195567    -0.03300
Br1461     Br  0.78101300  0.25172174  0.68920665    -0.01800
Br1462     Br  0.71130931  0.29347228  0.67004558    -0.01900
Br1463     Br  0.76173152  0.29601433  0.81980696    -0.01900
Br1464     Br  0.68778638  0.32957125  0.80140281    -0.01900
C1465       C  0.96607105  0.19142209  0.74101846    -0.03000
C1466       C  0.95439081  0.19950645  0.77163967     0.06700
C1467       C  0.97282924  0.22268401  0.79258818    -0.03100
C1468       C  0.50038202  0.24271200  0.78193760    -0.03100
C1469       C  0.51139664  0.23730976  0.75053326     0.06800
C1470       C  0.49484106  0.21006846  0.73051843    -0.03300
Br1471     Br  0.50939664  0.20210175  0.68784855    -0.01800
Br1472     Br  0.94141590  0.15725366  0.71309797    -0.01900
Br1473     Br  0.52062658  0.27992963  0.81078440    -0.01900
Br1474     Br  0.95885264  0.22873542  0.83593351    -0.01900
C1475       C  0.62670930  0.48668697  0.73909880    -0.03000
C1476       C  0.60054853  0.46165305  0.74836878     0.06700
C1477       C  0.57415744  0.47998535  0.76411158    -0.03100
C1478       C  0.57398031  0.52217668  0.77006610    -0.03100
C1479       C  0.59996713  0.54673931  0.76064122     0.06800
C1480       C  0.62636151  0.52887498  0.74539935    -0.03300
Br1481     Br  0.66159001  0.56288330  0.73216301    -0.01800
Br1482     Br  0.66384920  0.46392577  0.71839227    -0.01900
Br1483     Br  0.53804688  0.54649487  0.79183884    -0.01900
Br1484     Br  0.53678737  0.44883999  0.77642561    -0.01900
C1485       C  0.72479733  0.88146124  0.63611418    -0.03000
C1486       C  0.73439441  0.87920626  0.60394817     0.06700
C1487       C  0.76735237  0.88543516  0.59714217    -0.03100
C1488       C  0.79026080  0.88672059  0.62194448    -0.03100
C1489       C  0.78101800  0.87884908  0.65371637     0.06800
C1490       C  0.74772922  0.87857118  0.66069989    -0.03300
Br1491     Br  0.73199838  0.87223893  0.70342963    -0.01800
Br1492     Br  0.68037160  0.89142282  0.64747700    -0.01900
Br1493     Br  0.83415726  0.90115110  0.61176309    -0.01900
Br1494     Br  0.78211848  0.89368521  0.55429073    -0.01900
C1495       C  0.64171876  0.79147645  0.87739319    -0.03000
C1496       C  0.63236996  0.75008873  0.87454129     0.06700
C1497       C  0.63536230  0.72411295  0.90100636    -0.03100
C1498       C  0.64971048  0.73819722  0.92872765    -0.03100
C1499       C  0.65620133  0.78003423  0.93266659     0.06800
C1500       C  0.65264194  0.80662264  0.90677709    -0.03300
Br1501     Br  0.66234513  0.86356044  0.91160771    -0.01800
Br1502     Br  0.64085102  0.82764793  0.84140314    -0.01900
Br1503     Br  0.66249624  0.69859510  0.96032113    -0.01900
Br1504     Br  0.61753376  0.66968465  0.90121385    -0.01900
C1505       C  0.61314112  0.71841044  0.62342589    -0.03000
C1506       C  0.63925200  0.74526893  0.62060493     0.06700
C1507       C  0.65698527  0.75597168  0.64726995    -0.03100
C1508       C  0.64524267  0.74710452  0.67745198    -0.03100
C1509       C  0.61819799  0.72071471  0.68119770     0.06800
C1510       C  0.60340373  0.70461046  0.65357198    -0.03300
Br1511     Br  0.56806653  0.66663723  0.65594884    -0.01800
Br1512     Br  0.59048553  0.70141961  0.58585121    -0.01900
Br1513     Br  0.66628198  0.77516562  0.71194667    -0.01900
Br1514     Br  0.69826081  0.78169893  0.64178314    -0.01900
C1515       C  0.64515760  0.03054078  0.52130873    -0.03000
C1516       C  0.66015435  0.04335179  0.99492958     0.06700
C1517       C  0.67687971  0.01555620  0.97592586    -0.03100
C1518       C  0.67641119  0.97475691  0.48160608    -0.03100
C1519       C  0.66072607  0.95970526  0.50925663     0.06800
C1520       C  0.64435378  0.98852036  0.52865345    -0.03300
Br1521     Br  0.62031326  0.97252874  0.56569848    -0.01800
Br1522     Br  0.62185035  0.06909255  0.54663782    -0.01900
Br1523     Br  0.70856218  0.94064596  0.96143960    -0.01900
Br1524     Br  0.69833454  0.03450433  0.93825617    -0.01900
C1525       C  0.65109259  0.19953229  0.60174650    -0.03000
C1526       C  0.65801686  0.22607400  0.57640446     0.06700
C1527       C  0.65558555  0.26863240  0.58117532    -0.03100
C1528       C  0.64206182  0.28401070  0.60878789    -0.03100
C1529       C  0.63450299  0.25763030  0.63422400     0.06800
C1530       C  0.63981415  0.21528570  0.63076385    -0.03300
Br1531     Br  0.63302740  0.17852943  0.66576959    -0.01800
Br1532     Br  0.65744464  0.14188146  0.59732312    -0.01900
Br1533     Br  0.63250670  0.34185828  0.60959188    -0.01900
Br1534     Br  0.67291891  0.30766181  0.55102543    -0.01900
C1535       C  0.62514807  0.29062757  0.87843131    -0.03000
C1536       C  0.62768092  0.24794651  0.88292839     0.06700
C1537       C  0.61721357  0.22154379  0.85834437    -0.03100
C1538       C  0.60356470  0.23755827  0.83086455    -0.03100
C1539       C  0.60410544  0.27977958  0.82522318     0.06800
C1540       C  0.61408223  0.30643053  0.84925718    -0.03300
Br1541     Br  0.61314807  0.36434615  0.84195229    -0.01800
Br1542     Br  0.63576411  0.32804966  0.91187652    -0.01900
Br1543     Br  0.58294309  0.20076073  0.80119873    -0.01900
Br1544     Br  0.62316469  0.16285187  0.85947374    -0.01900
C1545       C  0.78278802  0.11530485  0.87662115    -0.03000
C1546       C  0.77672818  0.13802394  0.84860345     0.06700
C1547       C  0.74857295  0.16166581  0.84717081    -0.03100
C1548       C  0.72912594  0.16624070  0.87409388    -0.03100
C1549       C  0.73395480  0.14257304  0.90181768     0.06800
C1550       C  0.76169380  0.11754760  0.90298744    -0.03300
Br1551     Br  0.77250279  0.08810935  0.94104409    -0.01800
Br1552     Br  0.81904295  0.07870267  0.87818868    -0.01900
Br1553     Br  0.70130654  0.21256396  0.87459953    -0.01900
Br1554     Br  0.73635087  0.18967088  0.80876089    -0.01900
C1555       C  0.51847428  0.21555835  0.52641850    -0.03000
C1556       C  0.99977805  0.23596992  0.50345875     0.06700
C1557       C  0.51170572  0.24316709  0.97102766    -0.03100
C1558       C  0.53962896  0.22294999  0.96145453    -0.03100
C1559       C  0.55684295  0.19836908  0.98291698     0.06800
C1560       C  0.54883752  0.19928153  0.51818743    -0.03300
Br1561     Br  0.57635973  0.17632973  0.55028050    -0.01800
Br1562     Br  0.00320965  0.21206619  0.56928564    -0.01900
Br1563     Br  0.55499840  0.23045448  0.91894050    -0.01900
Br1564     Br  0.99180842  0.28120136  0.94212663    -0.01900
C1565       C  0.76188212  0.27302164  0.53491480    -0.03000
C1566       C  0.75296108  0.27173508  0.50254966     0.06700
C1567       C  0.77048522  0.28730187  0.97919978    -0.03100
C1568       C  0.79959046  0.30567623  0.98911668    -0.03100
C1569       C  0.80971252  0.31214589  0.52225522     0.06800
C1570       C  0.78920489  0.29472865  0.54469491    -0.03300
Br1571     Br  0.80029389  0.29845651  0.58901930    -0.01800
Br1572     Br  0.73923448  0.24180833  0.56625571    -0.01900
Br1573     Br  0.82871644  0.32731634  0.95826181    -0.01900
Br1574     Br  0.76096701  0.28118672  0.93482847    -0.01900
C1575       C  0.98583469  0.40103110  0.62373293    -0.03000
C1576       C  0.98961852  0.37451512  0.59766443     0.06700
C1577       C  0.51564633  0.34724568  0.59796207    -0.03100
C1578       C  0.53364727  0.34133205  0.62560399    -0.03100
C1579       C  0.53124325  0.36852169  0.65121240     0.06800
C1580       C  0.00740974  0.39916892  0.64985639    -0.03300
Br1581     Br  0.00411956  0.43825600  0.68351828    -0.01800
Br1582     Br  0.95229954  0.44142462  0.62264012    -0.01900
Br1583     Br  0.55621239  0.29064158  0.63004089    -0.01900
Br1584     Br  0.52794860  0.31762299  0.56085107    -0.01900
C1585       C  0.89677588  0.25316083  0.67885745    -0.03000
C1586       C  0.87165609  0.22345249  0.68129923     0.06700
C1587       C  0.85943355  0.20622836  0.65290233    -0.03100
C1588       C  0.86930154  0.22170334  0.62329077    -0.03100
C1589       C  0.89137413  0.25404311  0.62169803     0.06800
C1590       C  0.90630364  0.26800385  0.64920755    -0.03300
Br1591     Br  0.94077981  0.30720405  0.64580470    -0.01800
Br1592     Br  0.91976186  0.27521037  0.71493289    -0.01900
Br1593     Br  0.85189472  0.19947833  0.58465796    -0.01900
Br1594     Br  0.82856953  0.16237345  0.65325165    -0.01900
C1595       C  0.89997422  0.24080708  0.92669017    -0.03000
C1596       C  0.90362615  0.28319365  0.93081129     0.06700
C1597       C  0.89572656  0.30970212  0.90574781    -0.03100
C1598       C  0.88368988  0.29366092  0.87700208    -0.03100
C1599       C  0.87835025  0.25114934  0.87399057     0.06800
C1600       C  0.88454393  0.22558278  0.90002918    -0.03300
Br1601     Br  0.86877819  0.17023207  0.90147061    -0.01800
Br1602     Br  0.91791672  0.20203353  0.95643876    -0.01900
Br1603     Br  0.87417110  0.33046167  0.84263191    -0.01900
Br1604     Br  0.90104748  0.36755687  0.91089401    -0.01900
C1605       C  0.01029679  0.61771127  0.90303078    -0.03000
C1606       C  0.98683414  0.64857134  0.90540739     0.06700
C1607       C  0.48452668  0.67714101  0.88054394    -0.03100
C1608       C  0.50238190  0.67271951  0.85266363    -0.03100
C1609       C  0.52805267  0.64470145  0.85127912     0.06800
C1610       C  0.03189402  0.61704245  0.87698350    -0.03300
Br1611     Br  0.06525358  0.57636961  0.87592503    -0.01800
Br1612     Br  0.01196160  0.57560310  0.93470572    -0.01900
Br1613     Br  0.48996149  0.70520709  0.81662547    -0.01900
Br1614     Br  0.46098619  0.72662997  0.88611385    -0.01900
C1615       C  0.02061703  0.79491875  0.98244273    -0.03000
C1616       C  0.99922286  0.77853526  0.50443150     0.06700
C1617       C  0.50654353  0.78329307  0.53686959    -0.03100
C1618       C  0.53617858  0.79986595  0.54632120    -0.03100
C1619       C  0.55867181  0.81175378  0.52347204     0.06800
C1620       C  0.55009205  0.81103037  0.49118011    -0.03300
Br1621     Br  0.58006333  0.83270318  0.96176816    -0.01800
Br1622     Br  0.00907912  0.79472251  0.93836411    -0.01900
Br1623     Br  0.54712361  0.80386247  0.59060513    -0.01900
Br1624     Br  0.47690948  0.76480153  0.56864025    -0.01900
C1625       C  0.79488766  0.69161768  0.01306495    -0.03000
C1626       C  0.80938351  0.70398546  0.98452957     0.06700
C1627       C  0.79319669  0.73151019  0.96458812    -0.03100
C1628       C  0.76173618  0.74138615  0.47355959    -0.03100
C1629       C  0.75006776  0.73644736  0.50463276     0.06800
C1630       C  0.76588035  0.71013944  0.02298000    -0.03300
Br1631     Br  0.74731473  0.69617688  0.06317029    -0.01800
Br1632     Br  0.81645614  0.65256039  0.03973246    -0.01900
Br1633     Br  0.73916399  0.77383847  0.44287406    -0.01900
Br1634     Br  0.81053683  0.74481786  0.92359024    -0.01900
C1635       C  0.94324698  0.52733597  0.50674774    -0.03000
C1636       C  0.91306333  0.54716936  0.99896927     0.06700
C1637       C  0.88603141  0.52564482  0.49393441    -0.03100
C1638       C  0.88574875  0.48315921  0.49914485    -0.03100
C1639       C  0.91433481  0.46257526  0.50708021     0.06800
C1640       C  0.94305378  0.48482924  0.51071614    -0.03300
Br1641     Br  0.98253045  0.45727672  0.52166093    -0.01800
Br1642     Br  0.98076098  0.55521444  0.01815149    -0.01900
Br1643     Br  0.84634442  0.45279005  0.49507690    -0.01900
Br1644     Br  0.84512589  0.55117377  0.98156012    -0.01900
C1645       C  0.87837047  0.79559347  0.88024039    -0.03000
C1646       C  0.88219121  0.75292996  0.88440362     0.06700
C1647       C  0.87453227  0.72662109  0.85899096    -0.03100
C1648       C  0.86113308  0.74225997  0.83128203    -0.03100
C1649       C  0.85935450  0.78461224  0.82632456     0.06800
C1650       C  0.86767537  0.81132928  0.85088079    -0.03300
Br1651     Br  0.86506535  0.86922498  0.84389223    -0.01800
Br1652     Br  0.88709205  0.83310926  0.91417115    -0.01900
Br1653     Br  0.84409944  0.70438614  0.80051637    -0.01900
Br1654     Br  0.88458824  0.66889252  0.85953813    -0.01900
C1655       C  0.86706084  0.74385964  0.58150983    -0.03000
C1656       C  0.89527382  0.71942369  0.57768258     0.06700
C1657       C  0.91116441  0.70485107  0.60528495    -0.03100
C1658       C  0.90215206  0.71971652  0.63523260    -0.03100
C1659       C  0.87618342  0.74678206  0.63792786     0.06800
C1660       C  0.85712018  0.75572239  0.61168364    -0.03300
Br1661     Br  0.81705821  0.78448372  0.61769625    -0.01800
Br1662     Br  0.84129607  0.76416645  0.54674204    -0.01900
Br1663     Br  0.92566636  0.70398900  0.67272314    -0.01900
Br1664     Br  0.94612688  0.66631232  0.60319540    -0.01900
loop_ 
_geom_bond_atom_site_label_1 
_geom_bond_atom_site_label_2 
_geom_bond_distance 
_geom_bond_site_symmetry_2 
_ccdc_geom_bond_type 
O1           C16   1.261       .  A
O1         Al425   1.881   1_554  S
C2           O12   1.277       .  A
C2            O3   1.289       .  A
C2          C358   1.514       .  S
O3         Al421   1.988       .  S
O4            C6   1.248       .  A
O4         Al421   1.872       .  S
Al5          O13   1.883   1_556  S
Al5          O15   1.930   1_556  S
Al5         O419   1.974       .  S
Al5         O420   1.879   1_556  S
Al5         O430   1.776       .  S
C6           O19   1.254       .  A
C6          C784   1.480       .  S
O7           C17   1.256       .  A
O7           Al9   1.911       .  S
O8           C21   1.273       .  A
O8          Al18   1.927       .  S
Al9          O22   1.927       .  S
Al9          O19   1.914       .  S
Al9         O417   1.870       .  S
Al9          O14   1.789       .  S
O10          C17   1.249       .  A
O10         Al18   1.882       .  S
O11          C20   1.244       .  A
O11         Al18   1.889       .  S
O12         Al18   1.916       .  S
O13         C436   1.243   1_554  A
O14         Al18   1.785       .  S
O14        Al421   1.774       .  S
O15          C16   1.272       .  A
C16         C408   1.496       .  S
C17         C398   1.483       .  S
C20         O429   1.243       .  A
C20         C388   1.490       .  S
C21          O22   1.273       .  A
C21         C378   1.481       .  S
O23          C38   1.252       .  A
O23        Al447   1.840       .  S
C24          O34   1.269       .  A
C24          O25   1.277       .  A
C24         C328   1.497       .  S
O25         Al27   1.953       .  S
O26          C28   1.252       .  A
O26         Al27   1.881       .  S
Al27        O451   1.897       .  S
Al27        O453   1.951   1_554  S
Al27         O36   1.788       .  S
C28          O41   1.252       .  A
C28         C308   1.484       .  S
O29          C39   1.255       .  A
O29         Al31   1.883       .  S
O30          C43   1.268       .  A
O30         Al40   1.936       .  S
Al31         O44   1.911       .  S
Al31         O41   1.908       .  S
Al31        O439   1.841   1_554  S
Al31         O36   1.791       .  S
O32          C39   1.264       .  A
O32         Al40   1.929       .  S
O33          C42   1.252       .  A
O33         Al40   1.907       .  S
O34         Al40   1.908       .  S
O35         C458   1.253       .  A
O35        Al443   1.902       .  S
O36         Al40   1.797       .  S
O37          C38   1.273       .  A
O37        Al443   1.951       .  S
C38         C348   1.482       .  S
C39         C341   1.469       .  S
C42         O451   1.251       .  A
C42         C391   1.486       .  S
C43          O44   1.262       .  A
C43         C321   1.483       .  S
O45          C60   1.255       .  A
O45        Al469   1.846   1_554  S
C46          O56   1.277       .  A
C46          O47   1.284       .  A
C46         C301   1.511       .  S
O47        Al465   1.969       .  S
O48          C50   1.249       .  A
O48        Al465   1.879       .  S
Al49         O57   1.908   1_556  S
Al49         O59   1.961   1_556  S
Al49        O463   1.982       .  S
Al49        O464   1.873       .  S
Al49        O474   1.784       .  S
C50          O63   1.257       .  A
C50         C734   1.489       .  S
O51          C61   1.258       .  A
O51         Al53   1.918       .  S
O52          C65   1.275       .  A
O52         Al62   1.934       .  S
Al53         O66   1.924       .  S
Al53         O63   1.923       .  S
Al53        O461   1.846       .  S
Al53         O58   1.784       .  S
O54          C61   1.249       .  A
O54         Al62   1.878       .  S
O55          C64   1.243       .  A
O55         Al62   1.881       .  S
O56         Al62   1.918       .  S
O57         C480   1.249   1_554  A
O58         Al62   1.784       .  S
O58        Al465   1.790       .  S
O59          C60   1.277       .  A
C60         C278   1.495       .  S
C61         C288   1.484       .  S
C64         O473   1.250       .  A
C64         C268   1.488       .  S
C65          O66   1.269       .  A
C65         C311   1.483       .  S
O67          C82   1.251       .  A
O67        Al491   1.842       .  S
C68          O78   1.262       .  A
C68          O69   1.278       .  A
C68         C238   1.510       .  S
O69         Al71   1.974       .  S
O70          C72   1.257       .  A
O70         Al71   1.892       .  S
Al71        O495   1.896   1_554  S
Al71        O497   1.954   1_554  S
Al71         O80   1.766       .  S
C72          O85   1.262       .  A
C72         C381   1.483       .  S
O73          C83   1.256       .  A
O73         Al75   1.881       .  S
O74          C87   1.266       .  A
O74         Al84   1.912       .  S
Al75         O88   1.927       .  S
Al75         O85   1.933       .  S
Al75        O483   1.843   1_554  S
Al75         O80   1.773       .  S
O76          C83   1.266       .  A
O76         Al84   1.928       .  S
O77          C86   1.260       .  A
O77         Al84   1.934       .  S
O78         Al84   1.875       .  S
O79         C502   1.255       .  A
O79        Al487   1.906       .  S
O80         Al84   1.775       .  S
O81          C82   1.271       .  A
O81        Al487   1.954       .  S
C82         C251   1.482       .  S
C83         C258   1.459       .  S
C86         O495   1.253   1_554  A
C86         C271   1.505       .  S
C87          O88   1.269       .  A
C87         C371   1.471       .  S
O89         C104   1.256       .  A
O89         Al97   1.848       .  S
C90         O100   1.270       .  A
C90          O91   1.277       .  A
C90         C331   1.493       .  S
O91         Al93   1.961       .  S
O92          C94   1.253       .  A
O92         Al93   1.886       .  S
Al93        O101   1.897       .  S
Al93        O103   1.926       .  S
Al93        O102   1.782       .  S
C94         O107   1.261       .  A
C94         C221   1.492       .  S
O95         C105   1.263       .  A
O95         Al97   1.918       .  S
O96         C109   1.272       .  A
O96        Al106   1.928       .  S
Al97        O110   1.924       .  S
Al97        O107   1.933       .  S
Al97        O102   1.784       .  S
O98         C105   1.258       .  A
O98        Al106   1.909       .  S
O99         C108   1.251       .  A
O99        Al106   1.909       .  S
O100       Al106   1.896       .  S
O101        C108   1.249       .  A
O102       Al106   1.784       .  S
O103        C104   1.266       .  A
C104        C291   1.470       .  S
C105        C281   1.492       .  S
C108        C228   1.493       .  S
C109        O110   1.269       .  A
C109        C208   1.478       .  S
O111        C126   1.259       .  A
O111       Al119   1.875       .  S
C112        O122   1.277       .  A
C112        O113   1.284       .  A
C112        C361   1.511       .  S
O113       Al115   1.954       .  S
O114        C116   1.251       .  A
O114       Al115   1.888       .  S
Al115       O123   1.883       .  S
Al115       O125   1.930       .  S
Al115       O124   1.781       .  S
C116        O129   1.253       .  A
C116        C201   1.490       .  S
O117        C127   1.250       .  A
O117       Al119   1.890       .  S
O118        C131   1.267       .  A
O118       Al128   1.917       .  S
Al119       O132   1.922       .  S
Al119       O129   1.917       .  S
Al119       O124   1.798       .  S
O120        C127   1.252       .  A
O120       Al128   1.882       .  S
O121        C130   1.242       .  A
O121       Al128   1.883       .  S
O122       Al128   1.925       .  S
O123        C130   1.243       .  A
O124       Al128   1.794       .  S
O125        C126   1.273       .  A
C126        C261   1.493       .  S
C127        C248   1.470       .  S
C130        C231   1.479       .  S
C131        O132   1.269       .  A
C131        C188   1.479       .  S
O133        C148   1.257       .  A
O133       Al141   1.865       .  S
C134        O144   1.275       .  A
C134        O135   1.285       .  A
C134        C298   1.505       .  S
O135       Al137   1.960       .  S
O136        C138   1.252       .  A
O136       Al137   1.895       .  S
Al137       O145   1.886       .  S
Al137       O147   1.937       .  S
Al137       O146   1.779       .  S
C138        O151   1.249       .  A
C138        C211   1.485       .  S
O139        C149   1.248       .  A
O139       Al141   1.889       .  S
O140        C153   1.268       .  A
O140       Al150   1.921       .  S
Al141       O154   1.920       .  S
Al141       O151   1.896       .  S
Al141       O146   1.791       .  S
O142        C149   1.255       .  A
O142       Al150   1.901       .  S
O143        C152   1.244       .  A
O143       Al150   1.890       .  S
O144       Al150   1.910       .  S
O145        C152   1.245       .  A
O146       Al150   1.794       .  S
O147        C148   1.272       .  A
C148        C338   1.497       .  S
C149        C351   1.477       .  S
C152        C178   1.485       .  S
C153        O154   1.270       .  A
C153        C218   1.479       .  S
O155        C170   1.252       .  A
O155       Al163   1.845       .  S
C156        O166   1.263       .  A
C156        O157   1.274       .  A
C156        C241   1.512       .  S
O157       Al159   1.957       .  S
O158        C160   1.255       .  A
O158       Al159   1.896       .  S
Al159       O167   1.895       .  S
Al159       O169   1.948       .  S
Al159       O168   1.777       .  S
C160        O173   1.260       .  A
C160        C191   1.487       .  S
O161        C171   1.257       .  A
O161       Al163   1.886       .  S
O162        C175   1.266       .  A
O162       Al172   1.923       .  S
Al163       O176   1.924       .  S
Al163       O173   1.935       .  S
Al163       O168   1.778       .  S
O164        C171   1.266       .  A
O164       Al172   1.930       .  S
O165        C174   1.259       .  A
O165       Al172   1.929       .  S
O166       Al172   1.891       .  S
O167        C174   1.255       .  A
O168       Al172   1.779       .  S
O169        C170   1.271       .  A
C170        C401   1.470       .  S
C171        C411   1.464       .  S
C174        C181   1.486       .  S
C175        O176   1.266       .  A
C175        C198   1.478       .  S
C177        C178   1.411       .  A
C177        C182   1.407   1_545  A
C177       Br184   1.935       .  S
C178        C179   1.413       .  A
C179        C180   1.415   1_545  A
C179       Br186   1.927       .  S
C180        C181   1.411       .  A
C180       Br185   1.928       .  S
C181        C182   1.414       .  A
C182       Br183   1.929       .  S
C187        C188   1.412       .  A
C187        C192   1.417       .  A
C187       Br194   1.925       .  S
C188        C189   1.402       .  A
C189        C190   1.404       .  A
C189       Br196   1.933       .  S
C190        C191   1.415       .  A
C190       Br195   1.921       .  S
C191        C192   1.410       .  A
C192       Br193   1.926       .  S
C197        C198   1.412       .  A
C197        C202   1.416       .  A
C197       Br204   1.925       .  S
C198        C199   1.402       .  A
C199       C1032   1.405       .  A
C199       Br206   1.931       .  S
C200        C201   1.414       .  A
C200       C1031   1.405   1_455  A
C200       Br205   1.923       .  S
C201       C1034   1.412   1_455  A
C202       C1033   1.412       .  A
C202      Br1035   1.928       .  S
Br203      C1034   1.928   1_455  S
C207        C208   1.406       .  A
C207        C212   1.405       .  A
C207       Br214   1.930       .  S
C208        C209   1.411       .  A
C209        C210   1.415       .  A
C209       Br216   1.926       .  S
C210        C211   1.412       .  A
C210       Br215   1.930       .  S
C211        C212   1.412       .  A
C212       Br213   1.930       .  S
C217        C218   1.412       .  A
C217       C1054   1.420       .  A
C217       Br224   1.926       .  S
C218        C219   1.400       .  A
C219       C1052   1.401       .  A
C219       Br226   1.935       .  S
C220        C221   1.418       .  A
C220       C1051   1.401   1_455  A
C220       Br225   1.924       .  S
C221        C222   1.414   1_455  A
C222       C1049   1.420       .  A
C222       Br223   1.924   1_655  S
C227        C228   1.418       .  A
C227        C232   1.413       .  A
C227       Br234   1.932       .  S
C228        C229   1.419       .  A
C229        C230   1.408       .  A
C229       Br236   1.933       .  S
C230        C231   1.407       .  A
C230       Br235   1.934       .  S
C231        C232   1.407       .  A
C232       Br233   1.927       .  S
C237        C238   1.421       .  A
C237        C242   1.413       .  A
C237       Br244   1.941       .  S
C238        C239   1.415       .  A
C239        C240   1.416       .  A
C239       Br246   1.935       .  S
C240        C241   1.427       .  A
C240       Br245   1.938       .  S
C241        C242   1.421       .  A
C242       Br243   1.937       .  S
C247        C248   1.415       .  A
C247        C252   1.414       .  A
C247       Br254   1.931       .  S
C248        C249   1.403       .  A
C249        C250   1.389       .  A
C249       Br256   1.933       .  S
C250        C251   1.415       .  A
C250       Br255   1.936       .  S
C251        C252   1.412       .  A
C252       Br253   1.922       .  S
C257        C258   1.403       .  A
C257        C262   1.409       .  A
C257       Br264   1.930       .  S
C258        C259   1.392       .  A
C259        C260   1.399       .  A
C259       Br266   1.933       .  S
C260        C261   1.433       .  A
C260       Br265   1.937       .  S
C261        C262   1.421       .  A
C262       Br263   1.933       .  S
C267        C272   1.413   1_545  A
C267        C684   1.404   1_554  A
C267       Br274   1.924       .  S
C268        C269   1.406       .  A
C268        C683   1.403       .  A
C269        C686   1.412   1_545  A
C269       Br276   1.935       .  S
C270        C271   1.427   1_556  A
C270        C685   1.409   1_565  A
C270       Br691   1.938       .  S
C271        C272   1.424       .  A
C272       Br273   1.934       .  S
Br275       C686   1.934       .  S
C277        C278   1.413       .  A
C277        C282   1.419       .  A
C277       Br284   1.926       .  S
C278        C279   1.422       .  A
C279        C280   1.399       .  A
C279       Br286   1.948       .  S
C280        C281   1.414       .  A
C280       Br285   1.942       .  S
C281        C282   1.418       .  A
C282       Br283   1.930       .  S
C287        C288   1.419       .  A
C287        C292   1.414       .  A
C287       Br294   1.928       .  S
C288        C289   1.419       .  A
C289        C290   1.390       .  A
C289       Br296   1.942       .  S
C290        C291   1.406       .  A
C290       Br295   1.940       .  S
C291        C292   1.408       .  A
C292       Br293   1.928       .  S
C297        C298   1.421       .  A
C297        C302   1.424       .  A
C297       Br304   1.931       .  S
C298        C299   1.410       .  A
C299        C300   1.407       .  A
C299       Br306   1.928       .  S
C300        C301   1.414       .  A
C300       Br305   1.918       .  S
C301        C302   1.416       .  A
C302       Br303   1.927       .  S
C307        C312   1.417       .  A
C307       C1140   1.412   1_455  A
C307      Br1146   1.927   1_455  S
C308       C1139   1.413       .  A
C308       C1557   1.411   1_554  A
C309        C310   1.405       .  A
C309       C1556   1.411   1_455  A
C309      Br1148   1.927   1_455  S
C310        C311   1.408       .  A
C310       Br315   1.930       .  S
C311        C728   1.413       .  A
C312        C727   1.411   1_554  A
C312       Br313   1.922       .  S
Br314      C1139   1.927       .  S
Br316      C1141   1.927       .  S
C317        C318   1.418       .  A
C317        C322   1.407       .  A
C317       Br324   1.922       .  S
C318        C466   1.490   1_554  S
C318        C735   1.408   1_554  A
C319        C320   1.417       .  A
C319        C734   1.410       .  A
C319       Br326   1.927       .  S
C320        C737   1.413       .  A
C320       Br325   1.925       .  S
C321        C322   1.403       .  A
C321        C736   1.414   1_554  A
C322       Br323   1.934       .  S
C327        C328   1.417       .  A
C327        C332   1.424       .  A
C327       Br334   1.924       .  S
C328       C1161   1.407       .  A
C329        C330   1.402       .  A
C329       C1160   1.407   1_455  A
C329       Br336   1.913       .  S
C330        C331   1.408       .  A
C330       Br335   1.925       .  S
C331       C1164   1.413       .  A
C332       C1163   1.413       .  A
C332       Br333   1.926       .  S
C337        C338   1.430       .  A
C337        C342   1.398       .  A
C337       Br344   1.939       .  S
C338        C339   1.421       .  A
C339        C340   1.413       .  A
C339       Br346   1.931       .  S
C340        C341   1.407       .  A
C340       Br345   1.931       .  S
C341        C342   1.396       .  A
C342       Br343   1.928       .  S
C347        C348   1.419       .  A
C347        C352   1.392       .  A
C347       Br354   1.940       .  S
C348        C349   1.411       .  A
C349        C350   1.415       .  A
C349       Br356   1.929       .  S
C350        C351   1.419       .  A
C350       Br355   1.930       .  S
C351        C352   1.404       .  A
C352       Br353   1.936       .  S
C357        C358   1.415       .  A
C357        C362   1.426       .  A
C357       Br364   1.923       .  S
C358       C1191   1.415       .  A
C359        C360   1.410   1_655  A
C359       C1190   1.415       .  A
C359       Br366   1.917       .  S
C360        C361   1.411       .  A
C360       Br365   1.928   1_455  S
C361       C1194   1.421       .  A
C362       C1193   1.421       .  A
C362       Br363   1.929       .  S
C367        C784   1.407       .  A
C367       C1620   1.412       .  A
C367       Br374   1.925       .  S
C368        C422   1.480   1_554  S
C368        C783   1.408   1_554  A
C368       C1201   1.413       .  A
C369        C370   1.404       .  A
C369       C1200   1.413   1_455  A
C369       Br376   1.923   1_455  S
C370        C371   1.402       .  A
C370       Br375   1.931       .  S
C371        C372   1.411   1_554  A
C372       C1615   1.412       .  A
C372       Br789   1.926       .  S
Br373       C788   1.926       .  S
C377        C378   1.412       .  A
C377        C382   1.420       .  A
C377       Br384   1.926       .  S
C378        C379   1.405       .  A
C379        C796   1.401       .  A
C379       Br386   1.932       .  S
C380        C381   1.413   1_556  A
C380        C795   1.398       .  A
C380       Br385   1.926       .  S
C381        C798   1.412       .  A
C382        C797   1.412       .  A
C382       Br383   1.925       .  S
C387        C392   1.408       .  A
C387        C804   1.420   1_554  A
C387       Br810   1.937       .  S
C388        C803   1.416       .  A
C388        C805   1.417       .  A
C389        C390   1.417   1_556  A
C389        C804   1.421       .  A
C389       Br812   1.931       .  S
C390        C391   1.407       .  A
C390       Br395   1.929   1_554  S
C391        C392   1.409       .  A
C392       Br393   1.931       .  S
Br394       C803   1.935       .  S
Br396       C805   1.931       .  S
C397        C398   1.419       .  A
C397        C402   1.413       .  A
C397       Br404   1.929       .  S
C398        C399   1.418       .  A
C399        C400   1.392       .  A
C399       Br406   1.945       .  S
C400        C401   1.411       .  A
C400       Br405   1.939       .  S
C401        C402   1.406       .  A
C402       Br403   1.928       .  S
C407        C408   1.431       .  A
C407        C412   1.400       .  A
C407       Br414   1.932       .  S
C408        C409   1.422       .  A
C409        C410   1.411       .  A
C409       Br416   1.933       .  S
C410        C411   1.405       .  A
C410       Br415   1.930       .  S
C411        C412   1.393       .  A
C412       Br413   1.934       .  S
O417        C432   1.258       .  A
C418        O428   1.277       .  A
C418        O419   1.286       .  A
C418        C774   1.505       .  S
O420        C422   1.249   1_554  A
Al421       O429   1.886       .  S
Al421       O431   1.941       .  S
C422        O435   1.252       .  A
O423        C433   1.255       .  A
O423       Al425   1.905       .  S
O424        C437   1.271       .  A
O424       Al434   1.923       .  S
Al425       O438   1.912       .  S
Al425       O435   1.909       .  S
Al425       O430   1.791       .  S
O426        C433   1.251       .  A
O426       Al434   1.885       .  S
O427        C436   1.245       .  A
O427       Al434   1.899       .  S
O428       Al434   1.915       .  S
O430       Al434   1.790       .  S
O431        C432   1.274       .  A
C432        C824   1.499       .  S
C433        C814   1.488       .  S
C436        C804   1.500       .  S
C437        O438   1.270       .  A
C437        C794   1.477       .  S
O439        C454   1.255       .  A
C440        O450   1.268       .  A
C440        O441   1.277       .  A
C440        C744   1.495       .  S
O441       Al443   1.954       .  S
O442        C444   1.251       .  A
O442       Al443   1.879       .  S
Al443       O452   1.785       .  S
C444        O457   1.256       .  A
C444        C724   1.486       .  S
O445        C455   1.257       .  A
O445       Al447   1.889       .  S
O446        C459   1.268       .  A
O446       Al456   1.932       .  S
Al447       O460   1.910       .  S
Al447       O457   1.924       .  S
Al447       O452   1.784       .  S
O448        C455   1.265       .  A
O448       Al456   1.932       .  S
O449        C458   1.252       .  A
O449       Al456   1.902       .  S
O450       Al456   1.896       .  S
O452       Al456   1.791       .  S
O453        C454   1.273       .  A
C454        C764   1.479       .  S
C455        C757   1.472       .  S
C458        C807   1.482       .  S
C459        O460   1.264       .  A
C459        C737   1.477       .  S
O461        C476   1.257       .  A
C462        O472   1.275       .  A
C462        O463   1.286       .  A
C462        C717   1.520       .  S
O464        C466   1.248       .  A
Al465       O473   1.912       .  S
Al465       O475   1.949       .  S
C466        O479   1.259       .  A
O467        C477   1.261       .  A
O467       Al469   1.924       .  S
O468        C481   1.276       .  A
O468       Al478   1.937       .  S
Al469       O482   1.920       .  S
Al469       O479   1.932       .  S
Al469       O474   1.780       .  S
O470        C477   1.249       .  A
O470       Al478   1.880       .  S
O471        C480   1.244       .  A
O471       Al478   1.882       .  S
O472       Al478   1.914       .  S
O474       Al478   1.785       .  S
O475        C476   1.275       .  A
C476        C694   1.488       .  S
C477        C704   1.490       .  S
C480        C684   1.482       .  S
C481        O482   1.270       .  A
C481        C727   1.481       .  S
O483        C498   1.251       .  A
C484        O494   1.263       .  A
C484        O485   1.276       .  A
C484        C654   1.510       .  S
O485       Al487   1.965       .  S
O486        C488   1.259       .  A
O486       Al487   1.902       .  S
Al487       O496   1.775       .  S
C488        O501   1.262       .  A
C488        C797   1.488       .  S
O489        C499   1.259       .  A
O489       Al491   1.891       .  S
O490        C503   1.267       .  A
O490       Al500   1.920       .  S
Al491       O504   1.921       .  S
Al491       O501   1.937       .  S
Al491       O496   1.774       .  S
O492        C499   1.267       .  A
O492       Al500   1.933       .  S
O493        C502   1.259       .  A
O493       Al500   1.932       .  S
O494       Al500   1.880       .  S
O496       Al500   1.775       .  S
O497        C498   1.270       .  A
C498        C667   1.478       .  S
C499        C674   1.469       .  S
C502        C687   1.517       .  S
C503        O504   1.266       .  A
C503        C787   1.474       .  S
O505        C520   1.255       .  A
O505       Al513   1.845       .  S
C506        O516   1.271       .  A
C506        O507   1.281       .  A
C506        C747   1.498       .  S
O507       Al509   1.966       .  S
O508        C510   1.251       .  A
O508       Al509   1.876       .  S
Al509       O517   1.900       .  S
Al509       O519   1.929       .  S
Al509       O518   1.778       .  S
C510        O523   1.260       .  A
C510        C637   1.488       .  S
O511        C521   1.261       .  A
O511       Al513   1.918       .  S
O512        C525   1.275       .  A
O512       Al522   1.927       .  S
Al513       O526   1.927       .  S
Al513       O523   1.929       .  S
Al513       O518   1.785       .  S
O514        C521   1.254       .  A
O514       Al522   1.897       .  S
O515        C524   1.249       .  A
O515       Al522   1.907       .  S
O516       Al522   1.893       .  S
O517        C524   1.248       .  A
O518       Al522   1.782       .  S
O519        C520   1.269       .  A
C520        C707   1.472       .  S
C521        C697   1.488       .  S
C524        C644   1.500       .  S
C525        O526   1.271       .  A
C525        C624   1.477       .  S
O527        C542   1.265       .  A
O527       Al535   1.897       .  S
C528        O538   1.280       .  A
C528        O529   1.285       .  A
C528        C777   1.509       .  S
O529       Al531   1.941       .  S
O530        C532   1.251       .  A
O530       Al531   1.896       .  S
Al531       O539   1.884       .  S
Al531       O541   1.933       .  S
Al531       O540   1.778       .  S
C532        O545   1.249       .  A
C532        C617   1.485       .  S
O533        C543   1.251       .  A
O533       Al535   1.898       .  S
O534        C547   1.268       .  A
O534       Al544   1.922       .  S
Al535       O548   1.909       .  S
Al535       O545   1.906       .  S
Al535       O540   1.792       .  S
O536        C543   1.252       .  A
O536       Al544   1.885       .  S
O537        C546   1.243       .  A
O537       Al544   1.889       .  S
O538       Al544   1.936       .  S
O539        C546   1.243       .  A
O540       Al544   1.788       .  S
O541        C542   1.276       .  A
C542        C677   1.498       .  S
C543        C664   1.484       .  S
C546        C647   1.483       .  S
C547        O548   1.266       .  A
C547        C604   1.478       .  S
O549        C564   1.254       .  A
O549       Al557   1.861       .  S
C550        O560   1.274       .  A
C550        O551   1.289       .  A
C550        C714   1.506       .  S
O551       Al553   1.978       .  S
O552        C554   1.252       .  A
O552       Al553   1.885       .  S
Al553       O561   1.891       .  S
Al553       O563   1.948       .  S
Al553       O562   1.771       .  S
C554        O567   1.251       .  A
C554        C627   1.480       .  S
O555        C565   1.250       .  A
O555       Al557   1.900       .  S
O556        C569   1.270       .  A
O556       Al566   1.914       .  S
Al557       O570   1.923       .  S
Al557       O567   1.897       .  S
Al557       O562   1.787       .  S
O558        C565   1.256       .  A
O558       Al566   1.904       .  S
O559        C568   1.244       .  A
O559       Al566   1.893       .  S
O560       Al566   1.899       .  S
O561        C568   1.245       .  A
O562       Al566   1.790       .  S
O563        C564   1.273       .  A
C564        C754   1.506       .  S
C565        C767   1.483       .  S
C568        C594   1.480       .  S
C569        O570   1.273       .  A
C569        C634   1.472       .  S
O571        C586   1.251       .  A
O571       Al579   1.844       .  S
C572        O582   1.264       .  A
C572        O573   1.275       .  A
C572        C657   1.507       .  S
O573       Al575   1.958       .  S
O574        C576   1.255       .  A
O574       Al575   1.891       .  S
Al575       O583   1.894       .  S
Al575       O585   1.947       .  S
Al575       O584   1.775       .  S
C576        O589   1.261       .  A
C576        C607   1.486       .  S
O577        C587   1.256       .  A
O577       Al579   1.885       .  S
O578        C591   1.266       .  A
O578       Al588   1.913       .  S
Al579       O592   1.924       .  S
Al579       O589   1.935       .  S
Al579       O584   1.778       .  S
O580        C587   1.264       .  A
O580       Al588   1.930       .  S
O581        C590   1.259       .  A
O581       Al588   1.931       .  S
O582       Al588   1.888       .  S
O583        C590   1.254       .  A
O584       Al588   1.781       .  S
O585        C586   1.270       .  A
C586        C817   1.472       .  S
C587        C827   1.465       .  S
C590        C597   1.486       .  S
C591        O592   1.268       .  A
C591        C614   1.472       .  S
C593        C594   1.408       .  A
C593        C598   1.406   1_545  A
C593       Br600   1.933       .  S
C594        C595   1.410       .  A
C595        C596   1.414   1_545  A
C595       Br602   1.927       .  S
C596        C597   1.412       .  A
C596       Br601   1.928       .  S
C597        C598   1.415       .  A
C598       Br599   1.931       .  S
C603        C604   1.413       .  A
C603        C608   1.418       .  A
C603       Br610   1.925       .  S
C604        C605   1.403       .  A
C605        C606   1.402       .  A
C605       Br612   1.933       .  S
C606        C607   1.414       .  A
C606       Br611   1.923       .  S
C607        C608   1.411       .  A
C608       Br609   1.927       .  S
C613        C614   1.410       .  A
C613        C618   1.413       .  A
C613       Br620   1.924       .  S
C614        C615   1.401       .  A
C615       C1448   1.403       .  A
C615       Br622   1.930       .  S
C616       C1447   1.403   1_455  A
C616        C617   1.414       .  A
C616       Br621   1.924       .  S
C617       C1450   1.412   1_455  A
C618       C1449   1.412       .  A
C618      Br1451   1.929       .  S
Br619      C1450   1.929   1_455  S
C623        C624   1.408       .  A
C623        C628   1.404       .  A
C623       Br630   1.929       .  S
C624        C625   1.411       .  A
C625        C626   1.414       .  A
C625       Br632   1.923       .  S
C626        C627   1.410       .  A
C626       Br631   1.929       .  S
C627        C628   1.411       .  A
C628       Br629   1.931       .  S
C633        C634   1.412       .  A
C633       C1470   1.419       .  A
C633       Br640   1.926       .  S
C634        C635   1.398       .  A
C635       C1468   1.398       .  A
C635       Br642   1.938       .  S
C636       C1467   1.398   1_455  A
C636        C637   1.419       .  A
C636       Br641   1.924       .  S
C637        C638   1.413   1_455  A
C638       C1465   1.419       .  A
C638       Br639   1.926   1_655  S
C643        C644   1.421       .  A
C643        C648   1.414       .  A
C643       Br650   1.932       .  S
C644        C645   1.422       .  A
C645        C646   1.411       .  A
C645       Br652   1.935       .  S
C646        C647   1.409       .  A
C646       Br651   1.934       .  S
C647        C648   1.406       .  A
C648       Br649   1.929       .  S
C653        C654   1.422       .  A
C653        C658   1.412       .  A
C653       Br660   1.941       .  S
C654        C655   1.418       .  A
C655        C656   1.416       .  A
C655       Br662   1.936       .  S
C656        C657   1.423       .  A
C656       Br661   1.938       .  S
C657        C658   1.418       .  A
C658       Br659   1.936       .  S
C663        C664   1.421       .  A
C663        C668   1.414       .  A
C663       Br670   1.930       .  S
C664        C665   1.411       .  A
C665        C666   1.395       .  A
C665       Br672   1.938       .  S
C666        C667   1.412       .  A
C666       Br671   1.936       .  S
C667        C668   1.407       .  A
C668       Br669   1.927       .  S
C673        C674   1.406       .  A
C673        C678   1.414       .  A
C673       Br680   1.930       .  S
C674        C675   1.392       .  A
C675        C676   1.399       .  A
C675       Br682   1.930       .  S
C676        C677   1.431       .  A
C676       Br681   1.936       .  S
C677        C678   1.423       .  A
C678       Br679   1.933       .  S
C683        C688   1.416   1_545  A
C683       Br690   1.927       .  S
C684        C685   1.406       .  A
C685       Br692   1.932       .  S
C686        C687   1.430       .  A
C687        C688   1.430       .  A
C688       Br689   1.935       .  S
C693        C694   1.411       .  A
C693        C698   1.416       .  A
C693       Br700   1.924       .  S
C694        C695   1.418       .  A
C695        C696   1.395       .  A
C695       Br702   1.948       .  S
C696        C697   1.417       .  A
C696       Br701   1.944       .  S
C697        C698   1.418       .  A
C698       Br699   1.931       .  S
C703        C704   1.420       .  A
C703        C708   1.413       .  A
C703       Br710   1.928       .  S
C704        C705   1.424       .  A
C705        C706   1.394       .  A
C705       Br712   1.946       .  S
C706        C707   1.408       .  A
C706       Br711   1.944       .  S
C707        C708   1.406       .  A
C708       Br709   1.929       .  S
C713        C714   1.421       .  A
C713        C718   1.425       .  A
C713       Br720   1.931       .  S
C714        C715   1.407       .  A
C715        C716   1.409       .  A
C715       Br722   1.932       .  S
C716        C717   1.420       .  A
C716       Br721   1.913       .  S
C717        C718   1.418       .  A
C718       Br719   1.928       .  S
C723       C1556   1.411   1_455  A
C723        C728   1.418       .  A
C723      Br1562   1.928       .  S
C724       C1555   1.411       .  A
C724       C1141   1.411       .  A
C725       C1140   1.411   1_456  A
C725        C726   1.401       .  A
C725      Br1564   1.931   1_455  S
C726        C727   1.408       .  A
C726       Br731   1.927       .  S
C728       Br729   1.925       .  S
Br730      C1555   1.928       .  S
Br732      C1557   1.931       .  S
C733        C734   1.418       .  A
C733        C738   1.405       .  A
C733       Br740   1.925       .  S
C735        C736   1.417       .  A
C735       Br742   1.929       .  S
C736       Br741   1.921       .  S
C737        C738   1.401       .  A
C738       Br739   1.934       .  S
C743        C744   1.418       .  A
C743        C748   1.422       .  A
C743       Br750   1.927       .  S
C744       C1577   1.406       .  A
C745       C1576   1.406   1_455  A
C745        C746   1.400       .  A
C745       Br752   1.922       .  S
C746        C747   1.411       .  A
C746       Br751   1.921       .  S
C747       C1580   1.415       .  A
C748       C1579   1.415       .  A
C748       Br749   1.927       .  S
C753        C754   1.435       .  A
C753        C758   1.404       .  A
C753       Br760   1.941       .  S
C754        C755   1.422       .  A
C755        C756   1.414       .  A
C755       Br762   1.932       .  S
C756        C757   1.407       .  A
C756       Br761   1.931       .  S
C757        C758   1.396       .  A
C758       Br759   1.935       .  S
C763        C764   1.413       .  A
C763        C768   1.391       .  A
C763       Br770   1.936       .  S
C764        C765   1.408       .  A
C765        C766   1.417       .  A
C765       Br772   1.928       .  S
C766        C767   1.422       .  A
C766       Br771   1.929       .  S
C767        C768   1.407       .  A
C768       Br769   1.936       .  S
C773        C774   1.412       .  A
C773        C778   1.426       .  A
C773       Br780   1.925       .  S
C774       C1607   1.410       .  A
C775       C1606   1.410       .  A
C775        C776   1.405   1_655  A
C775       Br782   1.915       .  S
C776        C777   1.412       .  A
C776       Br781   1.928   1_455  S
C777       C1610   1.424       .  A
C778       C1609   1.424       .  A
C778       Br779   1.928       .  S
C783       C1204   1.412       .  A
C783       Br790   1.924       .  S
C784       C1617   1.414       .  A
C785       C1616   1.414   1_455  A
C785        C786   1.406       .  A
C785       Br792   1.926   1_455  S
C786        C787   1.404       .  A
C786       Br791   1.932       .  S
C787        C788   1.411       .  A
C788       C1199   1.412       .  A
C793        C794   1.411   1_554  A
C793        C798   1.418       .  A
C793       Br800   1.926       .  S
C794        C795   1.405       .  A
C795       Br802   1.931       .  S
C796        C797   1.413       .  A
C796       Br801   1.920       .  S
C798       Br799   1.925       .  S
C803        C808   1.407       .  A
C805        C806   1.414       .  A
C806        C807   1.408       .  A
C806       Br811   1.928       .  S
C807        C808   1.410       .  A
C808       Br809   1.930       .  S
C813        C814   1.422       .  A
C813        C818   1.414       .  A
C813       Br820   1.929       .  S
C814        C815   1.418       .  A
C815        C816   1.393       .  A
C815       Br822   1.944       .  S
C816        C817   1.410       .  A
C816       Br821   1.937       .  S
C817        C818   1.405       .  A
C818       Br819   1.929       .  S
C823        C824   1.433       .  A
C823        C828   1.401       .  A
C823       Br830   1.934       .  S
C824        C825   1.422       .  A
C825        C826   1.412       .  A
C825       Br832   1.932       .  S
C826        C827   1.405       .  A
C826       Br831   1.930       .  S
C827        C828   1.393       .  A
C828       Br829   1.935       .  S
O833        C848   1.261       .  A
O833      Al1257   1.881   1_554  S
C834        O844   1.277       .  A
C834        O835   1.289       .  A
C834       C1190   1.514       .  S
O835      Al1253   1.988       .  S
O836        C838   1.248       .  A
O836      Al1253   1.872       .  S
Al837      O1251   1.974       .  S
Al837      O1252   1.879   1_556  S
Al837       O845   1.883   1_556  S
Al837       O847   1.931   1_556  S
Al837      O1262   1.776       .  S
C838        O851   1.254       .  A
C838       C1616   1.480       .  S
O839        C849   1.256       .  A
O839       Al841   1.910       .  S
O840        C853   1.273       .  A
O840       Al850   1.927       .  S
Al841      O1249   1.870       .  S
Al841       O854   1.927       .  S
Al841       O851   1.914       .  S
Al841       O846   1.789       .  S
O842        C849   1.249       .  A
O842       Al850   1.882       .  S
O843        C852   1.244       .  A
O843       Al850   1.889       .  S
O844       Al850   1.917       .  S
O845       C1268   1.243   1_554  A
O846      Al1253   1.774       .  S
O846       Al850   1.785       .  S
O847        C848   1.272       .  A
C848       C1240   1.496       .  S
C849       C1230   1.483       .  S
C852       O1261   1.243       .  A
C852       C1220   1.490       .  S
C853        O854   1.273       .  A
C853       C1210   1.481       .  S
O855        C870   1.252       .  A
O855      Al1279   1.840       .  S
C856        O866   1.269       .  A
C856        O857   1.277       .  A
C856       C1160   1.497       .  S
O857       Al859   1.953       .  S
O858        C860   1.252       .  A
O858       Al859   1.881       .  S
Al859      O1283   1.897       .  S
Al859      O1285   1.951   1_554  S
Al859       O868   1.788       .  S
C860        O873   1.252       .  A
C860       C1140   1.484       .  S
O861        C871   1.255       .  A
O861       Al863   1.883       .  S
O862        C875   1.268       .  A
O862       Al872   1.936       .  S
Al863      O1271   1.841   1_554  S
Al863       O876   1.910       .  S
Al863       O873   1.908       .  S
Al863       O868   1.791       .  S
O864        C871   1.264       .  A
O864       Al872   1.929       .  S
O865        C874   1.252       .  A
O865       Al872   1.907       .  S
O866       Al872   1.908       .  S
O867       C1290   1.253       .  A
O867      Al1275   1.902       .  S
O868       Al872   1.797       .  S
O869        C870   1.273       .  A
O869      Al1275   1.952       .  S
C870       C1180   1.482       .  S
C871       C1173   1.468       .  S
C874       O1283   1.251       .  A
C874       C1223   1.486       .  S
C875        O876   1.262       .  A
C875       C1153   1.482       .  S
O877        C892   1.255       .  A
O877      Al1301   1.845   1_554  S
C878        O888   1.277       .  A
C878        O879   1.284       .  A
C878       C1133   1.511       .  S
O879      Al1297   1.969       .  S
O880        C882   1.249       .  A
O880      Al1297   1.879       .  S
Al881      O1295   1.982       .  S
Al881      O1296   1.873       .  S
Al881       O889   1.908   1_556  S
Al881       O891   1.961   1_556  S
Al881      O1306   1.785       .  S
C882        O895   1.257       .  A
C882       C1566   1.489       .  S
O883        C893   1.258       .  A
O883       Al885   1.918       .  S
O884        C897   1.275       .  A
O884       Al894   1.934       .  S
Al885      O1293   1.845       .  S
Al885       O898   1.924       .  S
Al885       O895   1.923       .  S
Al885       O890   1.784       .  S
O886        C893   1.249       .  A
O886       Al894   1.878       .  S
O887        C896   1.243       .  A
O887       Al894   1.881       .  S
O888       Al894   1.918       .  S
O889       C1312   1.249   1_554  A
O890      Al1297   1.790       .  S
O890       Al894   1.784       .  S
O891        C892   1.277       .  A
C892       C1110   1.495       .  S
C893       C1120   1.484       .  S
C896       O1305   1.250       .  A
C896       C1100   1.488       .  S
C897        O898   1.269       .  A
C897       C1143   1.483       .  S
O899        C914   1.251       .  A
O899      Al1323   1.842       .  S
C900        O910   1.262       .  A
C900        O901   1.278       .  A
C900       C1070   1.510       .  S
O901       Al903   1.974       .  S
O902        C904   1.257       .  A
O902       Al903   1.892       .  S
Al903      O1327   1.896   1_554  S
Al903      O1329   1.953   1_554  S
Al903       O912   1.766       .  S
C904        O917   1.262       .  A
C904       C1213   1.483       .  S
O905        C915   1.256       .  A
O905       Al907   1.881       .  S
O906        C919   1.266       .  A
O906       Al916   1.912       .  S
Al907      O1315   1.843   1_554  S
Al907       O920   1.927       .  S
Al907       O917   1.933       .  S
Al907       O912   1.773       .  S
O908        C915   1.266       .  A
O908       Al916   1.928       .  S
O909        C918   1.260       .  A
O909       Al916   1.934       .  S
O910       Al916   1.875       .  S
O911       C1334   1.255       .  A
O911      Al1319   1.906       .  S
O912       Al916   1.775       .  S
O913        C914   1.271       .  A
O913      Al1319   1.954       .  S
C914       C1083   1.482       .  S
C915       C1090   1.459       .  S
C918       O1327   1.253   1_554  A
C918       C1103   1.505       .  S
C919        O920   1.269       .  A
C919       C1203   1.471       .  S
O921        C936   1.256       .  A
O921       Al929   1.848       .  S
C922        O932   1.270       .  A
C922        O923   1.277       .  A
C922       C1163   1.493       .  S
O923       Al925   1.961       .  S
O924        C926   1.254       .  A
O924       Al925   1.886       .  S
Al925       O933   1.897       .  S
Al925       O935   1.926       .  S
Al925       O934   1.782       .  S
C926        O939   1.261       .  A
C926       C1053   1.493       .  S
O927        C937   1.263       .  A
O927       Al929   1.918       .  S
O928        C941   1.272       .  A
O928       Al938   1.928       .  S
Al929       O942   1.924       .  S
Al929       O939   1.933       .  S
Al929       O934   1.784       .  S
O930        C937   1.258       .  A
O930       Al938   1.909       .  S
O931        C940   1.251       .  A
O931       Al938   1.909       .  S
O932       Al938   1.896       .  S
O933        C940   1.249       .  A
O934       Al938   1.784       .  S
O935        C936   1.266       .  A
C936       C1123   1.470       .  S
C937       C1113   1.492       .  S
C940       C1060   1.493       .  S
C941        O942   1.269       .  A
C941       C1040   1.478       .  S
O943        C958   1.259       .  A
O943       Al951   1.875       .  S
C944        O954   1.277       .  A
C944        O945   1.284       .  A
C944       C1193   1.511       .  S
O945       Al947   1.955       .  S
O946        C948   1.251       .  A
O946       Al947   1.888       .  S
Al947       O955   1.883       .  S
Al947       O957   1.930       .  S
Al947       O956   1.781       .  S
C948        O961   1.253       .  A
C948       C1033   1.490       .  S
O949        C959   1.250       .  A
O949       Al951   1.891       .  S
O950        C963   1.267       .  A
O950       Al960   1.917       .  S
Al951       O964   1.922       .  S
Al951       O961   1.917       .  S
Al951       O956   1.798       .  S
O952        C959   1.252       .  A
O952       Al960   1.883       .  S
O953        C962   1.242       .  A
O953       Al960   1.883       .  S
O954       Al960   1.925       .  S
O955        C962   1.243       .  A
O956       Al960   1.794       .  S
O957        C958   1.273       .  A
C958       C1093   1.493       .  S
C959       C1080   1.470       .  S
C962       C1063   1.479       .  S
C963        O964   1.269       .  A
C963       C1020   1.479       .  S
O965        C980   1.257       .  A
O965       Al973   1.865       .  S
C966        O976   1.275       .  A
C966        O967   1.285       .  A
C966       C1130   1.505       .  S
O967       Al969   1.960       .  S
O968        C970   1.252       .  A
O968       Al969   1.895       .  S
Al969       O977   1.886       .  S
Al969       O979   1.937       .  S
Al969       O978   1.779       .  S
C970        O983   1.249       .  A
C970       C1043   1.485       .  S
O971        C981   1.249       .  A
O971       Al973   1.889       .  S
O972        C985   1.268       .  A
O972       Al982   1.921       .  S
Al973       O986   1.920       .  S
Al973       O983   1.896       .  S
Al973       O978   1.791       .  S
O974        C981   1.255       .  A
O974       Al982   1.901       .  S
O975        C984   1.244       .  A
O975       Al982   1.891       .  S
O976       Al982   1.910       .  S
O977        C984   1.245       .  A
O978       Al982   1.794       .  S
O979        C980   1.272       .  A
C980       C1170   1.497       .  S
C981       C1183   1.477       .  S
C984       C1010   1.485       .  S
C985        O986   1.270       .  A
C985       C1050   1.479       .  S
O987       C1002   1.252       .  A
O987       Al995   1.845       .  S
C988        O998   1.263       .  A
C988        O989   1.274       .  A
C988       C1073   1.512       .  S
O989       Al991   1.957       .  S
O990        C992   1.255       .  A
O990       Al991   1.896       .  S
Al991       O999   1.895       .  S
Al991      O1001   1.948       .  S
Al991      O1000   1.777       .  S
C992       O1005   1.260       .  A
C992       C1023   1.487       .  S
O993       C1003   1.257       .  A
O993       Al995   1.886       .  S
O994       C1007   1.266       .  A
O994      Al1004   1.923       .  S
Al995      O1008   1.924       .  S
Al995      O1005   1.935       .  S
Al995      O1000   1.778       .  S
O996       C1003   1.266       .  A
O996      Al1004   1.930       .  S
O997       C1006   1.259       .  A
O997      Al1004   1.929       .  S
O998      Al1004   1.891       .  S
O999       C1006   1.255       .  A
O1000     Al1004   1.779       .  S
O1001      C1002   1.271       .  A
C1002      C1233   1.470       .  S
C1003      C1243   1.464       .  S
C1006      C1013   1.486       .  S
C1007      O1008   1.266       .  A
C1007      C1030   1.478       .  S
C1009      C1010   1.411       .  A
C1009      C1014   1.407   1_545  A
C1009     Br1016   1.935       .  S
C1010      C1011   1.413       .  A
C1011      C1012   1.415   1_545  A
C1011     Br1018   1.927       .  S
C1012      C1013   1.411       .  A
C1012     Br1017   1.928       .  S
C1013      C1014   1.413       .  A
C1014     Br1015   1.929       .  S
C1019      C1020   1.412       .  A
C1019      C1024   1.417       .  A
C1019     Br1026   1.925       .  S
C1020      C1021   1.402       .  A
C1021      C1022   1.404       .  A
C1021     Br1028   1.933       .  S
C1022      C1023   1.415       .  A
C1022     Br1027   1.921       .  S
C1023      C1024   1.410       .  A
C1024     Br1025   1.926       .  S
C1029      C1030   1.412       .  A
C1029      C1034   1.416       .  A
C1029     Br1036   1.925       .  S
C1030      C1031   1.402       .  A
C1031     Br1038   1.931       .  S
C1032      C1033   1.414       .  A
C1032     Br1037   1.923       .  S
C1039      C1040   1.406       .  A
C1039      C1044   1.405       .  A
C1039     Br1046   1.930       .  S
C1040      C1041   1.411       .  A
C1041      C1042   1.415       .  A
C1041     Br1048   1.926       .  S
C1042      C1043   1.412       .  A
C1042     Br1047   1.930       .  S
C1043      C1044   1.412       .  A
C1044     Br1045   1.930       .  S
C1049      C1050   1.412       .  A
C1049     Br1056   1.926       .  S
C1050      C1051   1.400       .  A
C1051     Br1058   1.935       .  S
C1052      C1053   1.418       .  A
C1052     Br1057   1.924       .  S
C1053      C1054   1.414       .  A
C1054     Br1055   1.924       .  S
C1059      C1060   1.418       .  A
C1059      C1064   1.413       .  A
C1059     Br1066   1.932       .  S
C1060      C1061   1.419       .  A
C1061      C1062   1.408       .  A
C1061     Br1068   1.933       .  S
C1062      C1063   1.407       .  A
C1062     Br1067   1.934       .  S
C1063      C1064   1.407       .  A
C1064     Br1065   1.927       .  S
C1069      C1070   1.421       .  A
C1069      C1074   1.413       .  A
C1069     Br1076   1.941       .  S
C1070      C1071   1.415       .  A
C1071      C1072   1.416       .  A
C1071     Br1078   1.935       .  S
C1072      C1073   1.427       .  A
C1072     Br1077   1.938       .  S
C1073      C1074   1.421       .  A
C1074     Br1075   1.937       .  S
C1079      C1080   1.415       .  A
C1079      C1084   1.414       .  A
C1079     Br1086   1.931       .  S
C1080      C1081   1.403       .  A
C1081      C1082   1.389       .  A
C1081     Br1088   1.933       .  S
C1082      C1083   1.415       .  A
C1082     Br1087   1.936       .  S
C1083      C1084   1.412       .  A
C1084     Br1085   1.922       .  S
C1089      C1090   1.403       .  A
C1089      C1094   1.409       .  A
C1089     Br1096   1.930       .  S
C1090      C1091   1.392       .  A
C1091      C1092   1.399       .  A
C1091     Br1098   1.933       .  S
C1092      C1093   1.433       .  A
C1092     Br1097   1.937       .  S
C1093      C1094   1.421       .  A
C1094     Br1095   1.933       .  S
C1099      C1516   1.404   1_554  A
C1099      C1104   1.413   1_545  A
C1099     Br1106   1.924       .  S
C1100      C1515   1.403       .  A
C1100      C1101   1.406       .  A
C1101      C1518   1.412   1_545  A
C1101     Br1108   1.935       .  S
C1102      C1517   1.409   1_565  A
C1102      C1103   1.427   1_556  A
C1102     Br1523   1.938       .  S
C1103      C1104   1.424       .  A
C1104     Br1105   1.934       .  S
Br1107     C1518   1.934       .  S
C1109      C1110   1.413       .  A
C1109      C1114   1.419       .  A
C1109     Br1116   1.926       .  S
C1110      C1111   1.422       .  A
C1111      C1112   1.398       .  A
C1111     Br1118   1.948       .  S
C1112      C1113   1.414       .  A
C1112     Br1117   1.941       .  S
C1113      C1114   1.418       .  A
C1114     Br1115   1.930       .  S
C1119      C1120   1.419       .  A
C1119      C1124   1.414       .  A
C1119     Br1126   1.928       .  S
C1120      C1121   1.419       .  A
C1121      C1122   1.390       .  A
C1121     Br1128   1.941       .  S
C1122      C1123   1.406       .  A
C1122     Br1127   1.940       .  S
C1123      C1124   1.407       .  A
C1124     Br1125   1.928       .  S
C1129      C1130   1.421       .  A
C1129      C1134   1.424       .  A
C1129     Br1136   1.931       .  S
C1130      C1131   1.410       .  A
C1131      C1132   1.407       .  A
C1131     Br1138   1.928       .  S
C1132      C1133   1.414       .  A
C1132     Br1137   1.918       .  S
C1133      C1134   1.416       .  A
C1134     Br1135   1.927       .  S
C1139      C1144   1.417       .  A
C1141      C1142   1.405       .  A
C1142      C1143   1.408       .  A
C1142     Br1147   1.930       .  S
C1143      C1560   1.413       .  A
C1144      C1559   1.411   1_554  A
C1144     Br1145   1.922       .  S
C1149      C1150   1.418       .  A
C1149      C1154   1.407       .  A
C1149     Br1156   1.922       .  S
C1150      C1298   1.489   1_554  S
C1150      C1567   1.408   1_554  A
C1151      C1566   1.410       .  A
C1151      C1152   1.417       .  A
C1151     Br1158   1.927       .  S
C1152      C1569   1.413       .  A
C1152     Br1157   1.925       .  S
C1153      C1568   1.414   1_554  A
C1153      C1154   1.403       .  A
C1154     Br1155   1.934       .  S
C1159      C1160   1.417       .  A
C1159      C1164   1.424   1_655  A
C1159     Br1166   1.924       .  S
C1161      C1162   1.402       .  A
C1161     Br1168   1.913       .  S
C1162      C1163   1.408       .  A
C1162     Br1167   1.925       .  S
C1164     Br1165   1.926       .  S
C1169      C1170   1.430       .  A
C1169      C1174   1.399       .  A
C1169     Br1176   1.939       .  S
C1170      C1171   1.421       .  A
C1171      C1172   1.413       .  A
C1171     Br1178   1.931       .  S
C1172      C1173   1.407       .  A
C1172     Br1177   1.931       .  S
C1173      C1174   1.396       .  A
C1174     Br1175   1.928       .  S
C1179      C1180   1.419       .  A
C1179      C1184   1.392       .  A
C1179     Br1186   1.940       .  S
C1180      C1181   1.411       .  A
C1181      C1182   1.415       .  A
C1181     Br1188   1.929       .  S
C1182      C1183   1.418       .  A
C1182     Br1187   1.930       .  S
C1183      C1184   1.404       .  A
C1184     Br1185   1.935       .  S
C1189      C1190   1.415   1_455  A
C1189      C1194   1.426       .  A
C1189     Br1196   1.922       .  S
C1191      C1192   1.410       .  A
C1191     Br1198   1.917       .  S
C1192      C1193   1.411       .  A
C1192     Br1197   1.928       .  S
C1194     Br1195   1.929       .  S
C1199      C1616   1.407   1_455  A
C1199     Br1206   1.925       .  S
C1200      C1254   1.480   1_554  S
C1200      C1615   1.408   1_654  A
C1201      C1202   1.404       .  A
C1201     Br1208   1.923       .  S
C1202      C1203   1.402       .  A
C1202     Br1207   1.931       .  S
C1203      C1204   1.411   1_554  A
C1204     Br1621   1.926       .  S
Br1205     C1620   1.926       .  S
C1209      C1210   1.412       .  A
C1209      C1214   1.420       .  A
C1209     Br1216   1.926       .  S
C1210      C1211   1.405       .  A
C1211      C1628   1.401       .  A
C1211     Br1218   1.932       .  S
C1212      C1627   1.398       .  A
C1212      C1213   1.413   1_556  A
C1212     Br1217   1.926       .  S
C1213      C1630   1.412       .  A
C1214      C1629   1.412       .  A
C1214     Br1215   1.925       .  S
C1219      C1636   1.420   1_554  A
C1219      C1224   1.408       .  A
C1219     Br1642   1.937       .  S
C1220      C1635   1.416       .  A
C1220      C1637   1.417       .  A
C1221      C1636   1.421       .  A
C1221      C1222   1.417   1_556  A
C1221     Br1644   1.931       .  S
C1222      C1223   1.407       .  A
C1222     Br1227   1.929   1_554  S
C1223      C1224   1.409       .  A
C1224     Br1225   1.931       .  S
Br1226     C1635   1.935       .  S
Br1228     C1637   1.931       .  S
C1229      C1230   1.419       .  A
C1229      C1234   1.413       .  A
C1229     Br1236   1.929       .  S
C1230      C1231   1.418       .  A
C1231      C1232   1.392       .  A
C1231     Br1238   1.945       .  S
C1232      C1233   1.411       .  A
C1232     Br1237   1.939       .  S
C1233      C1234   1.406       .  A
C1234     Br1235   1.928       .  S
C1239      C1240   1.431       .  A
C1239      C1244   1.400       .  A
C1239     Br1246   1.932       .  S
C1240      C1241   1.422       .  A
C1241      C1242   1.411       .  A
C1241     Br1248   1.933       .  S
C1242      C1243   1.405       .  A
C1242     Br1247   1.930       .  S
C1243      C1244   1.393       .  A
C1244     Br1245   1.934       .  S
O1249      C1264   1.258       .  A
C1250      O1260   1.277       .  A
C1250      O1251   1.286       .  A
C1250      C1606   1.505       .  S
O1252      C1254   1.249   1_554  A
Al1253     O1261   1.886       .  S
Al1253     O1263   1.941       .  S
C1254      O1267   1.252       .  A
O1255      C1265   1.255       .  A
O1255     Al1257   1.905       .  S
O1256      C1269   1.271       .  A
O1256     Al1266   1.923       .  S
Al1257     O1270   1.912       .  S
Al1257     O1267   1.909       .  S
Al1257     O1262   1.791       .  S
O1258      C1265   1.251       .  A
O1258     Al1266   1.885       .  S
O1259      C1268   1.245       .  A
O1259     Al1266   1.899       .  S
O1260     Al1266   1.916       .  S
O1262     Al1266   1.790       .  S
O1263      C1264   1.274       .  A
C1264      C1656   1.499       .  S
C1265      C1646   1.489       .  S
C1268      C1636   1.500       .  S
C1269      O1270   1.270       .  A
C1269      C1626   1.477       .  S
O1271      C1286   1.255       .  A
C1272      O1282   1.268       .  A
C1272      O1273   1.277       .  A
C1272      C1576   1.495       .  S
O1273     Al1275   1.954       .  S
O1274      C1276   1.251       .  A
O1274     Al1275   1.879       .  S
Al1275     O1284   1.785       .  S
C1276      O1289   1.256       .  A
C1276      C1556   1.486       .  S
O1277      C1287   1.257       .  A
O1277     Al1279   1.889       .  S
O1278      C1291   1.268       .  A
O1278     Al1288   1.933       .  S
Al1279     O1292   1.910       .  S
Al1279     O1289   1.924       .  S
Al1279     O1284   1.784       .  S
O1280      C1287   1.265       .  A
O1280     Al1288   1.933       .  S
O1281      C1290   1.252       .  A
O1281     Al1288   1.902       .  S
O1282     Al1288   1.896       .  S
O1284     Al1288   1.791       .  S
O1285      C1286   1.273       .  A
C1286      C1596   1.479       .  S
C1287      C1589   1.472       .  S
C1290      C1639   1.482       .  S
C1291      O1292   1.264       .  A
C1291      C1569   1.477       .  S
O1293      C1308   1.257       .  A
C1294      O1304   1.275       .  A
C1294      O1295   1.286       .  A
C1294      C1549   1.520       .  S
O1296      C1298   1.248       .  A
Al1297     O1305   1.913       .  S
Al1297     O1307   1.949       .  S
C1298      O1311   1.259       .  A
O1299      C1309   1.261       .  A
O1299     Al1301   1.924       .  S
O1300      C1313   1.276       .  A
O1300     Al1310   1.937       .  S
Al1301     O1314   1.919       .  S
Al1301     O1311   1.932       .  S
Al1301     O1306   1.780       .  S
O1302      C1309   1.249       .  A
O1302     Al1310   1.880       .  S
O1303      C1312   1.244       .  A
O1303     Al1310   1.882       .  S
O1304     Al1310   1.914       .  S
O1306     Al1310   1.785       .  S
O1307      C1308   1.275       .  A
C1308      C1526   1.488       .  S
C1309      C1536   1.490       .  S
C1312      C1516   1.482       .  S
C1313      O1314   1.270       .  A
C1313      C1559   1.481       .  S
O1315      C1330   1.251       .  A
C1316      O1326   1.263       .  A
C1316      O1317   1.276       .  A
C1316      C1486   1.511       .  S
O1317     Al1319   1.965       .  S
O1318      C1320   1.259       .  A
O1318     Al1319   1.902       .  S
Al1319     O1328   1.775       .  S
C1320      O1333   1.262       .  A
C1320      C1629   1.488       .  S
O1321      C1331   1.259       .  A
O1321     Al1323   1.891       .  S
O1322      C1335   1.267       .  A
O1322     Al1332   1.920       .  S
Al1323     O1336   1.921       .  S
Al1323     O1333   1.937       .  S
Al1323     O1328   1.774       .  S
O1324      C1331   1.267       .  A
O1324     Al1332   1.933       .  S
O1325      C1334   1.259       .  A
O1325     Al1332   1.932       .  S
O1326     Al1332   1.880       .  S
O1328     Al1332   1.775       .  S
O1329      C1330   1.270       .  A
C1330      C1499   1.477       .  S
C1331      C1506   1.469       .  S
C1334      C1519   1.517       .  S
C1335      O1336   1.266       .  A
C1335      C1619   1.474       .  S
O1337      C1352   1.255       .  A
O1337     Al1345   1.845       .  S
C1338      O1348   1.271       .  A
C1338      O1339   1.281       .  A
C1338      C1579   1.498       .  S
O1339     Al1341   1.966       .  S
O1340      C1342   1.251       .  A
O1340     Al1341   1.876       .  S
Al1341     O1349   1.900       .  S
Al1341     O1351   1.929       .  S
Al1341     O1350   1.778       .  S
C1342      O1355   1.260       .  A
C1342      C1469   1.488       .  S
O1343      C1353   1.261       .  A
O1343     Al1345   1.918       .  S
O1344      C1357   1.275       .  A
O1344     Al1354   1.927       .  S
Al1345     O1358   1.926       .  S
Al1345     O1355   1.929       .  S
Al1345     O1350   1.785       .  S
O1346      C1353   1.254       .  A
O1346     Al1354   1.897       .  S
O1347      C1356   1.249       .  A
O1347     Al1354   1.907       .  S
O1348     Al1354   1.893       .  S
O1349      C1356   1.248       .  A
O1350     Al1354   1.782       .  S
O1351      C1352   1.269       .  A
C1352      C1539   1.472       .  S
C1353      C1529   1.488       .  S
C1356      C1476   1.500       .  S
C1357      O1358   1.271       .  A
C1357      C1456   1.477       .  S
O1359      C1374   1.265       .  A
O1359     Al1367   1.897       .  S
C1360      O1370   1.280       .  A
C1360      O1361   1.285       .  A
C1360      C1609   1.509       .  S
O1361     Al1363   1.941       .  S
O1362      C1364   1.251       .  A
O1362     Al1363   1.896       .  S
Al1363     O1371   1.884       .  S
Al1363     O1373   1.933       .  S
Al1363     O1372   1.778       .  S
C1364      O1377   1.249       .  A
C1364      C1449   1.485       .  S
O1365      C1375   1.251       .  A
O1365     Al1367   1.898       .  S
O1366      C1379   1.268       .  A
O1366     Al1376   1.922       .  S
Al1367     O1380   1.910       .  S
Al1367     O1377   1.906       .  S
Al1367     O1372   1.792       .  S
O1368      C1375   1.252       .  A
O1368     Al1376   1.885       .  S
O1369      C1378   1.243       .  A
O1369     Al1376   1.889       .  S
O1370     Al1376   1.936       .  S
O1371      C1378   1.243       .  A
O1372     Al1376   1.788       .  S
O1373      C1374   1.276       .  A
C1374      C1509   1.498       .  S
C1375      C1496   1.484       .  S
C1378      C1479   1.483       .  S
C1379      O1380   1.266       .  A
C1379      C1436   1.478       .  S
O1381      C1396   1.254       .  A
O1381     Al1389   1.861       .  S
C1382      O1392   1.274       .  A
C1382      O1383   1.289       .  A
C1382      C1546   1.506       .  S
O1383     Al1385   1.978       .  S
O1384      C1386   1.252       .  A
O1384     Al1385   1.885       .  S
Al1385     O1393   1.891       .  S
Al1385     O1395   1.949       .  S
Al1385     O1394   1.771       .  S
C1386      O1399   1.251       .  A
C1386      C1459   1.480       .  S
O1387      C1397   1.250       .  A
O1387     Al1389   1.900       .  S
O1388      C1401   1.270       .  A
O1388     Al1398   1.914       .  S
Al1389     O1402   1.923       .  S
Al1389     O1399   1.897       .  S
Al1389     O1394   1.787       .  S
O1390      C1397   1.256       .  A
O1390     Al1398   1.904       .  S
O1391      C1400   1.244       .  A
O1391     Al1398   1.893       .  S
O1392     Al1398   1.899       .  S
O1393      C1400   1.245       .  A
O1394     Al1398   1.790       .  S
O1395      C1396   1.273       .  A
C1396      C1586   1.506       .  S
C1397      C1599   1.483       .  S
C1400      C1426   1.480       .  S
C1401      O1402   1.273       .  A
C1401      C1466   1.472       .  S
O1403      C1418   1.251       .  A
O1403     Al1411   1.844       .  S
C1404      O1414   1.264       .  A
C1404      O1405   1.275       .  A
C1404      C1489   1.507       .  S
O1405     Al1407   1.958       .  S
O1406      C1408   1.255       .  A
O1406     Al1407   1.891       .  S
Al1407     O1415   1.894       .  S
Al1407     O1417   1.947       .  S
Al1407     O1416   1.775       .  S
C1408      O1421   1.261       .  A
C1408      C1439   1.486       .  S
O1409      C1419   1.256       .  A
O1409     Al1411   1.885       .  S
O1410      C1423   1.266       .  A
O1410     Al1420   1.913       .  S
Al1411     O1424   1.924       .  S
Al1411     O1421   1.935       .  S
Al1411     O1416   1.778       .  S
O1412      C1419   1.264       .  A
O1412     Al1420   1.929       .  S
O1413      C1422   1.259       .  A
O1413     Al1420   1.931       .  S
O1414     Al1420   1.888       .  S
O1415      C1422   1.254       .  A
O1416     Al1420   1.781       .  S
O1417      C1418   1.270       .  A
C1418      C1649   1.472       .  S
C1419      C1659   1.465       .  S
C1422      C1429   1.486       .  S
C1423      O1424   1.268       .  A
C1423      C1446   1.472       .  S
C1425      C1426   1.408       .  A
C1425      C1430   1.406   1_545  A
C1425     Br1432   1.933       .  S
C1426      C1427   1.410       .  A
C1427      C1428   1.414   1_545  A
C1427     Br1434   1.927       .  S
C1428      C1429   1.412       .  A
C1428     Br1433   1.928       .  S
C1429      C1430   1.415       .  A
C1430     Br1431   1.931       .  S
C1435      C1436   1.413       .  A
C1435      C1440   1.418       .  A
C1435     Br1442   1.925       .  S
C1436      C1437   1.403       .  A
C1437      C1438   1.402       .  A
C1437     Br1444   1.933       .  S
C1438      C1439   1.414       .  A
C1438     Br1443   1.923       .  S
C1439      C1440   1.411       .  A
C1440     Br1441   1.926       .  S
C1445      C1446   1.410       .  A
C1445      C1450   1.413       .  A
C1445     Br1452   1.924       .  S
C1446      C1447   1.401       .  A
C1447     Br1454   1.930       .  S
C1448      C1449   1.414       .  A
C1448     Br1453   1.924       .  S
C1455      C1456   1.408       .  A
C1455      C1460   1.404       .  A
C1455     Br1462   1.929       .  S
C1456      C1457   1.411       .  A
C1457      C1458   1.414       .  A
C1457     Br1464   1.923       .  S
C1458      C1459   1.410       .  A
C1458     Br1463   1.929       .  S
C1459      C1460   1.411       .  A
C1460     Br1461   1.931       .  S
C1465      C1466   1.412       .  A
C1465     Br1472   1.926       .  S
C1466      C1467   1.398       .  A
C1467     Br1474   1.938       .  S
C1468      C1469   1.419       .  A
C1468     Br1473   1.923       .  S
C1469      C1470   1.413       .  A
C1470     Br1471   1.926       .  S
C1475      C1476   1.421       .  A
C1475      C1480   1.414       .  A
C1475     Br1482   1.932       .  S
C1476      C1477   1.422       .  A
C1477      C1478   1.411       .  A
C1477     Br1484   1.935       .  S
C1478      C1479   1.409       .  A
C1478     Br1483   1.934       .  S
C1479      C1480   1.406       .  A
C1480     Br1481   1.929       .  S
C1485      C1486   1.422       .  A
C1485      C1490   1.412       .  A
C1485     Br1492   1.941       .  S
C1486      C1487   1.418       .  A
C1487      C1488   1.416       .  A
C1487     Br1494   1.936       .  S
C1488      C1489   1.423       .  A
C1488     Br1493   1.938       .  S
C1489      C1490   1.418       .  A
C1490     Br1491   1.936       .  S
C1495      C1496   1.421       .  A
C1495      C1500   1.414       .  A
C1495     Br1502   1.930       .  S
C1496      C1497   1.411       .  A
C1497      C1498   1.395       .  A
C1497     Br1504   1.938       .  S
C1498      C1499   1.412       .  A
C1498     Br1503   1.936       .  S
C1499      C1500   1.407       .  A
C1500     Br1501   1.927       .  S
C1505      C1506   1.406       .  A
C1505      C1510   1.414       .  A
C1505     Br1512   1.930       .  S
C1506      C1507   1.392       .  A
C1507      C1508   1.399       .  A
C1507     Br1514   1.930       .  S
C1508      C1509   1.431       .  A
C1508     Br1513   1.936       .  S
C1509      C1510   1.423       .  A
C1510     Br1511   1.933       .  S
C1515      C1520   1.416   1_545  A
C1515     Br1522   1.927       .  S
C1516      C1517   1.406       .  A
C1517     Br1524   1.932       .  S
C1518      C1519   1.430       .  A
C1519      C1520   1.430       .  A
C1520     Br1521   1.935       .  S
C1525      C1526   1.411       .  A
C1525      C1530   1.416       .  A
C1525     Br1532   1.924       .  S
C1526      C1527   1.418       .  A
C1527      C1528   1.395       .  A
C1527     Br1534   1.948       .  S
C1528      C1529   1.417       .  A
C1528     Br1533   1.944       .  S
C1529      C1530   1.418       .  A
C1530     Br1531   1.931       .  S
C1535      C1536   1.420       .  A
C1535      C1540   1.413       .  A
C1535     Br1542   1.928       .  S
C1536      C1537   1.424       .  A
C1537      C1538   1.394       .  A
C1537     Br1544   1.946       .  S
C1538      C1539   1.408       .  A
C1538     Br1543   1.944       .  S
C1539      C1540   1.406       .  A
C1540     Br1541   1.929       .  S
C1545      C1546   1.421       .  A
C1545      C1550   1.425       .  A
C1545     Br1552   1.931       .  S
C1546      C1547   1.407       .  A
C1547      C1548   1.409       .  A
C1547     Br1554   1.932       .  S
C1548      C1549   1.419       .  A
C1548     Br1553   1.913       .  S
C1549      C1550   1.418       .  A
C1550     Br1551   1.928       .  S
C1555      C1560   1.418       .  A
C1557      C1558   1.401       .  A
C1558      C1559   1.408       .  A
C1558     Br1563   1.927       .  S
C1560     Br1561   1.925       .  S
C1565      C1566   1.418       .  A
C1565      C1570   1.405       .  A
C1565     Br1572   1.925       .  S
C1567      C1568   1.417       .  A
C1567     Br1574   1.929       .  S
C1568     Br1573   1.921       .  S
C1569      C1570   1.401       .  A
C1570     Br1571   1.934       .  S
C1575      C1576   1.418       .  A
C1575      C1580   1.423   1_655  A
C1575     Br1582   1.927       .  S
C1577      C1578   1.400       .  A
C1577     Br1584   1.922       .  S
C1578      C1579   1.411       .  A
C1578     Br1583   1.921       .  S
C1580     Br1581   1.927       .  S
C1585      C1586   1.435       .  A
C1585      C1590   1.404       .  A
C1585     Br1592   1.941       .  S
C1586      C1587   1.422       .  A
C1587      C1588   1.414       .  A
C1587     Br1594   1.932       .  S
C1588      C1589   1.407       .  A
C1588     Br1593   1.931       .  S
C1589      C1590   1.396       .  A
C1590     Br1591   1.935       .  S
C1595      C1596   1.413       .  A
C1595      C1600   1.391       .  A
C1595     Br1602   1.936       .  S
C1596      C1597   1.409       .  A
C1597      C1598   1.417       .  A
C1597     Br1604   1.928       .  S
C1598      C1599   1.422       .  A
C1598     Br1603   1.929       .  S
C1599      C1600   1.407       .  A
C1600     Br1601   1.936       .  S
C1605      C1606   1.412   1_455  A
C1605      C1610   1.426       .  A
C1605     Br1612   1.925       .  S
C1607      C1608   1.405       .  A
C1607     Br1614   1.915       .  S
C1608      C1609   1.412       .  A
C1608     Br1613   1.928       .  S
C1610     Br1611   1.928       .  S
C1615     Br1622   1.924       .  S
C1617      C1618   1.406       .  A
C1617     Br1624   1.926       .  S
C1618      C1619   1.404       .  A
C1618     Br1623   1.932       .  S
C1619      C1620   1.411       .  A
C1625      C1626   1.411   1_554  A
C1625      C1630   1.418       .  A
C1625     Br1632   1.926       .  S
C1626      C1627   1.405       .  A
C1627     Br1634   1.931       .  S
C1628      C1629   1.413       .  A
C1628     Br1633   1.920       .  S
C1630     Br1631   1.925       .  S
C1635      C1640   1.407       .  A
C1637      C1638   1.414       .  A
C1638      C1639   1.408       .  A
C1638     Br1643   1.928       .  S
C1639      C1640   1.410       .  A
C1640     Br1641   1.930       .  S
C1645      C1646   1.422       .  A
C1645      C1650   1.414       .  A
C1645     Br1652   1.929       .  S
C1646      C1647   1.418       .  A
C1647      C1648   1.393       .  A
C1647     Br1654   1.944       .  S
C1648      C1649   1.410       .  A
C1648     Br1653   1.937       .  S
C1649      C1650   1.405       .  A
C1650     Br1651   1.929       .  S
C1655      C1656   1.433       .  A
C1655      C1660   1.401       .  A
C1655     Br1662   1.934       .  S
C1656      C1657   1.422       .  A
C1657      C1658   1.412       .  A
C1657     Br1664   1.932       .  S
C1658      C1659   1.405       .  A
C1658     Br1663   1.930       .  S
C1659      C1660   1.393       .  A
C1660     Br1661   1.935       .  S
