geometry optimzed in LAMMPS
_audit_creation_date              2020-12-01 
_audit_creation_method            'lammps2cif' 
_symmetry_space_group_name_H-M    'P1' 
_symmetry_Int_Tables_number       1 
_symmetry_cell_setting            triclinic 
loop_ 
_symmetry_equiv_pos_as_xyz 
  x,y,z 
_cell_length_a                    53.84809048 
_cell_length_b                    26.371347870136322 
_cell_length_c                    28.49441847610909 
_cell_angle_alpha                 90.09930513981443 
_cell_angle_beta                  118.73580520529869 
_cell_angle_gamma                 90.2217402037456 
loop_ 
_atom_site_label 
_atom_site_type_symbol 
_atom_site_fract_x 
_atom_site_fract_y 
_atom_site_fract_z 
_atom_site_charge 
Fe1        Fe  0.10332338  0.42495088  0.42913089     1.65800
Fe2        Fe  0.11983809  0.32003903  0.38517224     1.73200
Fe3        Fe  0.05832928  0.38025770  0.30756927     1.54400
O4          O  0.03688167  0.40936987  0.34765041    -0.81300
O5          O  0.12100587  0.33486493  0.31640293    -0.79600
O6          O  0.06864959  0.40325469  0.43384005    -0.83800
O7          O  0.08058129  0.48304535  0.37494021    -0.78700
O8          O  0.04646036  0.30918887  0.31613230    -0.80400
O9          O  0.15576003  0.36861399  0.42553797    -0.83200
C10         C  0.06935225  0.48800167  0.32432015     0.97600
C11         C  0.04369527  0.41104572  0.39727169     1.05000
O12         O  0.09404115  0.37518380  0.37314326    -1.12200
O13         O  0.11872289  0.30037421  0.45324202    -0.74600
O14         O  0.12642915  0.37539891  0.49264808    -0.78100
O15         O  0.06792935  0.45154515  0.29436242    -0.78800
C16         C  0.12384060  0.32757399  0.49337641     0.96500
O17         O  0.13854692  0.44566507  0.42561343    -0.76700
O18         O  0.08695500  0.26651971  0.34516119    -0.81900
C19         C  0.10016208  0.33824066  0.26973128     0.99100
C20         C  0.05994756  0.26817137  0.32351975     1.05000
O21         O  0.07550853  0.35189662  0.26051447    -0.77600
C22         C  0.15869882  0.41692072  0.43195711     1.03300
Fe23       Fe  0.10294371  0.06513903  0.92941940     1.65800
Fe24       Fe  0.12196040  0.16959279  0.88791204     1.73200
Fe25       Fe  0.06076404  0.10845643  0.80683359     1.54400
O26         O  0.07037915  0.03687060  0.79449236    -0.81300
O27         O  0.08964357  0.22290971  0.84655759    -0.79600
O28         O  0.08143859  0.00633000  0.87466544    -0.83800
O29         O  0.06720817  0.08669281  0.93032817    -0.78700
O30         O  0.07962725  0.13673655  0.76256459    -0.80400
O31         O  0.11952253  0.18989890  0.95455984    -0.83200
C32         C  0.04262421  0.07906606  0.89204933     0.97600
C33         C  0.07171641  0.00051550  0.82442791     1.05000
O34         O  0.09555114  0.11421200  0.87396292    -1.12200
O35         O  0.15722607  0.12092888  0.93032716    -0.74600
O36         O  0.13895128  0.04438118  0.92971585    -0.78100
O37         O  0.03732645  0.07980096  0.84324599    -0.78800
C38         C  0.15954011  0.07267503  0.93704395     0.96500
O39         O  0.12490827  0.11516766  0.99328061    -0.76700
O40         O  0.12475001  0.15521976  0.82030154    -0.79500
C41         C  0.06262351  0.22057903  0.82395950     0.99100
C42         C  0.10442654  0.15120041  0.77302079     1.05000
O43         O  0.04911219  0.17922819  0.81532240    -0.77600
C44         C  0.12326014  0.16310947  0.99400270     1.03300
Fe45       Fe  0.40093644  0.56346330  0.54904518     1.65800
Fe46       Fe  0.38363955  0.66693008  0.59450011     1.73200
Fe47       Fe  0.44390113  0.60389363  0.67373223     1.54400
O48         O  0.43237944  0.53264179  0.68206929    -0.81300
O49         O  0.41695737  0.71933668  0.63566366    -0.79600
O50         O  0.42227860  0.50358690  0.60177494    -0.83800
O51         O  0.43685021  0.58567986  0.54898304    -0.78700
O52         O  0.42585442  0.63089438  0.71991146    -0.80400
O53         O  0.38542567  0.68849194  0.52743789    -0.83200
C54         C  0.46133390  0.57682886  0.58688273     0.97600
C55         C  0.43199432  0.49728446  0.65188042     1.05000
O56         O  0.40922977  0.61145709  0.60641289    -1.12200
O57         O  0.34772227  0.61859182  0.55231151    -0.74600
O58         O  0.36461575  0.54222069  0.54793812    -0.78100
O59         O  0.46672980  0.57610659  0.63576413    -0.78800
C60         C  0.34457575  0.57060931  0.54290119     0.96500
O61         O  0.37917781  0.61458261  0.48649182    -0.76700
O62         O  0.38128721  0.65160628  0.66233179    -0.81900
C63         C  0.44399317  0.71645151  0.65903899     0.99100
C64         C  0.40124689  0.64582551  0.70961590     1.05000
O65         O  0.45713762  0.67480197  0.66924936    -0.77600
C66         C  0.38104393  0.66257118  0.48695584     1.03300
Fe67       Fe  0.39704779  0.91895865  0.04356918     1.65800
Fe68       Fe  0.37992620  0.81710059  0.09205165     1.73200
Fe69       Fe  0.44284136  0.87583237  0.16452002     1.54400
O70         O  0.46338606  0.90479751  0.12260010    -0.81300
O71         O  0.38085765  0.83508491  0.16233147    -0.79600
O72         O  0.43116427  0.89626613  0.03720319    -0.83800
O73         O  0.42049180  0.97819161  0.09691516    -0.78700
O74         O  0.45288988  0.80427605  0.15349363    -0.80400
O75         O  0.34472686  0.86616731  0.05327182    -0.83200
C76         C  0.43233765  0.98390190  0.14767785     0.97600
C77         C  0.45607749  0.90642483  0.07280024     1.05000
O78         O  0.40636323  0.87080512  0.10066261    -1.12200
O79         O  0.37877360  0.79388270  0.02289240    -0.74600
O80         O  0.37323356  0.86739282  0.98163226    -0.78100
O81         O  0.43446233  0.94771495  0.17845186    -0.78800
C82         C  0.37438052  0.81921275  0.98215821     0.96500
O83         O  0.36260441  0.94151719  0.04866614    -0.76700
O84         O  0.41217548  0.76331349  0.13074558    -0.81900
C85         C  0.40264813  0.83631617  0.20799370     0.99100
C86         C  0.43895567  0.76401116  0.14873926     1.05000
O87         O  0.42717680  0.84798241  0.21461337    -0.77600
C88         C  0.34265581  0.91433852  0.04643474     1.03300
C89         C  0.39607634  0.68286810  0.83517055     0.16300
C90         C  0.40011682  0.69114823  0.88700288    -0.32700
C91         C  0.38522892  0.73127198  0.89441381     0.20700
C92         C  0.36718992  0.76192074  0.85238278     0.02900
C93         C  0.36233809  0.75239974  0.80031712    -0.22400
C94         C  0.37716579  0.71231195  0.79289505     0.12100
S95         S  0.41436386  0.63999587  0.81826457    -0.06100
C96         C  0.39570528  0.66134268  0.75335300    -0.09600
C97         C  0.37651470  0.69950403  0.74590189    -0.26200
S98         S  0.35381569  0.81234986  0.87084581    -0.03400
C99         C  0.37226497  0.79120413  0.93572876    -0.16800
C100        C  0.38773529  0.74733295  0.94213609    -0.14800
H101        H  0.41495289  0.66860472  0.92036319     0.20600
H102        H  0.34843101  0.77632851  0.76734935     0.16600
H103        H  0.36378941  0.71884254  0.70838897     0.19100
H104        H  0.40138122  0.72974665  0.98027897     0.12500
C105        C  0.37310989  0.71818842  0.35623675     0.16300
C106        C  0.36684297  0.72830084  0.30347150    -0.32700
C107        C  0.38197545  0.76751964  0.29516834     0.20700
C108        C  0.40265068  0.79526583  0.33730129     0.02900
C109        C  0.40827131  0.78623496  0.38994590    -0.22400
C110        C  0.39295045  0.74728913  0.39822243     0.12100
S111        S  0.35891544  0.66942225  0.37538957    -0.06100
C112        C  0.37942838  0.68940032  0.44047935    -0.09600
C113        C  0.39623974  0.73149525  0.44653293    -0.26200
S114        S  0.42051765  0.83780947  0.31886513    -0.03400
C115        C  0.39920771  0.81898707  0.25357777    -0.16800
C116        C  0.37962415  0.78155292  0.24711093    -0.14800
H117        H  0.35137764  0.70577844  0.27045554     0.20600
H118        H  0.42436832  0.80769890  0.42313173     0.16600
H119        H  0.41104415  0.74826114  0.48464583     0.19100
H120        H  0.36521334  0.76387772  0.20925833     0.12500
C121        C  0.28020743  0.00278219  0.01344831     0.16300
C122        C  0.26212871  0.04459624  0.00078429    -0.32700
C123        C  0.23355351  0.03493915  0.98458610     0.20700
C124        C  0.22366701  0.98577217  0.98190456     0.02900
C125        C  0.24178166  0.94403452  0.99506856    -0.22400
C126        C  0.27026300  0.95364221  0.01063511     0.12100
S127        S  0.31511283  0.00659792  0.03122870    -0.06100
C128        C  0.31640386  0.94121597  0.03452605    -0.09600
C129        C  0.29100536  0.91797485  0.02302552    -0.26200
S130        S  0.18842934  0.98149385  0.96070763    -0.03400
C131        C  0.18671969  0.04670849  0.95491729    -0.16800
C132        C  0.21239046  0.07033456  0.96913774    -0.14800
H133        H  0.26991469  0.08286340  0.00260852     0.20600
H134        H  0.23390716  0.90571570  0.99246515     0.16600
H135        H  0.28773266  0.87739235  0.02246221     0.19100
H136        H  0.21539045  0.11086493  0.96818010     0.12500
C137        C  0.49914240  0.98913346  0.02967367     0.16300
C138        C  0.51375573  0.02986896  0.02273231    -0.32700
C139        C  0.01111619  0.03667003  0.97169786     0.20700
C140        C  0.99466194  0.00464654  0.92927526     0.02900
C141        C  0.97974016  0.96429000  0.93605857    -0.22400
C142        C  0.98255945  0.95727284  0.98719937     0.12100
S143        S  0.49849413  0.97563002  0.08775514    -0.06100
C144        C  0.47505182  0.92722381  0.05404883    -0.09600
C145        C  0.46896517  0.92139892  0.00112186    -0.26200
S146        S  0.99709462  0.01578309  0.87247489    -0.03400
C147        C  0.02127820  0.06295175  0.90699097    -0.16800
C148        C  0.02581487  0.07092081  0.95870805    -0.14800
H149        H  0.52691354  0.05475728  0.05576424     0.20600
H150        H  0.96695071  0.93889256  0.90326346     0.16600
H151        H  0.95363488  0.89477875  0.97307715     0.19100
H152        H  0.54152264  0.09669428  0.98737693     0.12500
C153        C  0.03687215  0.87024497  0.77953061     0.16300
C154        C  0.52681094  0.82078595  0.77733824    -0.32700
C155        C  0.50095420  0.80755798  0.73283806     0.20700
C156        C  0.98557545  0.84176922  0.69224194     0.02900
C157        C  0.99606669  0.89079631  0.69374447    -0.22400
C158        C  0.02202309  0.90403305  0.73823589     0.12100
S159        S  0.06597696  0.89566543  0.83311125    -0.06100
C160        C  0.05832425  0.95220555  0.79906988    -0.09600
C161        C  0.03460629  0.95080422  0.74877002    -0.26200
S162        S  0.45376278  0.81868287  0.64337968    -0.03400
C163        C  0.46167212  0.76230460  0.67775059    -0.16800
C164        C  0.48747736  0.76191117  0.72439246    -0.14800
H165        H  0.53817314  0.79429845  0.80958404     0.20600
H166        H  0.98418090  0.91785777  0.66244583     0.16600
H167        H  0.02578702  0.98340068  0.72303283     0.19100
H168        H  0.49582325  0.72981108  0.75106934     0.12500
C169        C  0.46900179  0.37014661  0.70144731     0.16300
C170        C  0.47799802  0.31979756  0.70843482    -0.32700
C171        C  0.00535934  0.30956770  0.74966293     0.20700
C172        C  0.02340109  0.34747377  0.78202981     0.02900
C173        C  0.51409592  0.39767939  0.77604652    -0.22400
C174        C  0.48651995  0.40785628  0.73529199     0.12100
S175        S  0.43731197  0.39125247  0.65123679    -0.06100
C176        C  0.44749657  0.45115239  0.67748944    -0.09600
C177        C  0.47403776  0.45426589  0.72219520    -0.26200
S178        S  0.05644214  0.32677539  0.82779430    -0.03400
C179        C  0.04529769  0.26635777  0.80374262    -0.16800
C180        C  0.01770704  0.26315405  0.76225093    -0.14800
H181        H  0.46443371  0.28998875  0.68244822     0.20600
H182        H  0.52784997  0.42762302  0.80139545     0.16600
H183        H  0.48424397  0.48924962  0.74237656     0.19100
H184        H  0.00725471  0.22843349  0.74175660     0.12500
C185        C  0.13184008  0.27502199  0.62552622     0.16300
C186        C  0.13791844  0.26560805  0.67838877    -0.32700
C187        C  0.12495638  0.22324789  0.68758632     0.20700
C188        C  0.10654161  0.19197057  0.64614469     0.02900
C189        C  0.10109904  0.20058021  0.59363652    -0.22400
C190        C  0.11424119  0.24255048  0.58453153     0.12100
S191        S  0.14383818  0.32609875  0.60490272    -0.06100
C192        C  0.12557906  0.30229034  0.54074637    -0.09600
C193        C  0.11087947  0.25766349  0.53606939    -0.26200
S194        S  0.09057820  0.14591083  0.66470423    -0.03400
C195        C  0.10942695  0.16828834  0.72923624    -0.16800
C196        C  0.12709849  0.20918385  0.73555680    -0.14800
H197        H  0.15159407  0.29074455  0.71067584     0.20600
H198        H  0.08672346  0.17636423  0.56108929     0.16600
H199        H  0.09767387  0.23807068  0.49871933     0.19100
H200        H  0.13956081  0.22943461  0.77280480     0.12500
C201        C  0.10408727  0.29897848  0.14421427     0.16300
C202        C  0.10069853  0.29207958  0.09275805    -0.32700
C203        C  0.11324197  0.24923240  0.08382379     0.20700
C204        C  0.12827434  0.21444477  0.12395232     0.02900
C205        C  0.13236729  0.22212830  0.17573947    -0.22400
C206        C  0.12006408  0.26518196  0.18477298     0.12100
S207        S  0.08864396  0.34611149  0.16255959    -0.06100
C208        C  0.10466683  0.32056146  0.22575439    -0.09600
C209        C  0.12084746  0.27793646  0.23177868    -0.26200
S210        S  0.13961578  0.16258437  0.10362635    -0.03400
C211        C  0.12456108  0.18885292  0.04076005    -0.16800
C212        C  0.11142883  0.23507180  0.03621313    -0.14800
H213        H  0.08827984  0.31823786  0.06077638     0.20600
H214        H  0.14406363  0.19514980  0.20732610     0.16600
H215        H  0.13160931  0.25605993  0.26825741     0.19100
H216        H  0.10012695  0.25621405  0.99935821     0.12500
C217        C  0.02005121  0.14084302  0.28280910     0.16300
C218        C  0.51006690  0.09100666  0.27897301    -0.32700
C219        C  0.48422648  0.07838782  0.23383770     0.20700
C220        C  0.46920353  0.11327704  0.19388100     0.02900
C221        C  0.97889631  0.16336706  0.19822704    -0.22400
C222        C  0.00447739  0.17616505  0.24375623     0.12100
S223        S  0.05134052  0.16381504  0.33363230    -0.06100
C224        C  0.04274992  0.22189291  0.30253035    -0.09600
C225        C  0.01724447  0.22272223  0.25521168    -0.26200
S226        S  0.43965810  0.08897181  0.14005620    -0.03400
C227        C  0.44720100  0.03155852  0.17256997    -0.16800
C228        C  0.47145064  0.03176316  0.22219207    -0.14800
H229        H  0.52198412  0.06318211  0.30936178     0.20600
H230        H  0.96724548  0.19096161  0.16736535     0.16600
H231        H  0.00861634  0.25581271  0.23016322     0.19100
H232        H  0.48011883  0.99869708  0.24724992     0.12500
C233        C  0.98010368  0.63949672  0.18744127     0.16300
C234        C  0.99196542  0.59168197  0.18986808    -0.32700
C235        C  0.01716028  0.57977329  0.23653548     0.20700
C236        C  0.02974380  0.61342295  0.27916390     0.02900
C237        C  0.51813026  0.66122887  0.27650254    -0.22400
C238        C  0.49329428  0.67336395  0.22972163     0.12100
S239        S  0.44973538  0.66204457  0.13455987    -0.06100
C240        C  0.45556112  0.71786442  0.16978188    -0.09600
C241        C  0.47937840  0.71832573  0.21961107    -0.26200
S242        S  0.05875213  0.59030871  0.33401057    -0.03400
C243        C  0.05428633  0.53488185  0.29891579    -0.16800
C244        C  0.03145839  0.53488703  0.24737262    -0.14800
H245        H  0.98197035  0.56490139  0.15708879     0.20600
H246        H  0.52788092  0.68774220  0.30960032     0.16600
H247        H  0.48632112  0.75041583  0.24683714     0.19100
H248        H  0.02461573  0.50255455  0.22049613     0.12500
C249        C  0.22459987  0.50146199  0.47913989     0.16300
C250        C  0.24402149  0.54186435  0.49746250    -0.32700
C251        C  0.27111999  0.53307407  0.50400787     0.20700
C252        C  0.27841212  0.48600466  0.49262993     0.02900
C253        C  0.25896382  0.44555281  0.47423394    -0.22400
C254        C  0.23186888  0.45431113  0.46789603     0.12100
S255        S  0.19085027  0.50501526  0.46870011    -0.06100
C256        C  0.18622696  0.44217763  0.44904355    -0.09600
C257        C  0.20991090  0.41983411  0.45074003    -0.26200
S258        S  0.31231941  0.48260136  0.50375342    -0.03400
C259        C  0.31692469  0.54527616  0.52422024    -0.16800
C260        C  0.29311806  0.56745739  0.52201071    -0.14800
H261        H  0.23825371  0.57852823  0.50635973     0.20600
H262        H  0.26476136  0.40884262  0.46550602     0.16600
H263        H  0.21094239  0.38089960  0.43970148     0.19100
H264        H  0.29205262  0.60621378  0.53350125     0.12500
C265        C  0.50682745  0.50207596  0.54481110     0.16300
C266        C  0.52033554  0.46122605  0.53533964    -0.32700
C267        C  0.01692176  0.45590107  0.48352290     0.20700
C268        C  0.00116495  0.48983219  0.44303524     0.02900
C269        C  0.98790624  0.53094284  0.45263887    -0.22400
C270        C  0.49117522  0.53611409  0.50435441     0.12100
S271        S  0.50514668  0.51163797  0.60260718    -0.06100
C272        C  0.48229214  0.56088734  0.57105965    -0.09600
C273        C  0.47774857  0.57068481  0.51969425    -0.26200
S274        S  0.00158045  0.47883647  0.38427541    -0.03400
C275        C  0.02393459  0.42886914  0.41519882    -0.16800
C276        C  0.02953072  0.42031101  0.46744076    -0.14800
H277        H  0.53256046  0.43433617  0.56659545     0.20600
H278        H  0.97545677  0.55753704  0.42121932     0.16600
H279        H  0.46270046  0.59798591  0.49269936     0.19100
H280        H  0.04444485  0.39262805  0.49404690     0.12500
Fe281      Fe  0.60335036  0.42494723  0.42923113     1.65800
Fe282      Fe  0.61987163  0.32003333  0.38528222     1.73200
Fe283      Fe  0.55836903  0.38026312  0.30766042     1.54400
O284        O  0.53691474  0.40938326  0.34772827    -0.81300
O285        O  0.62104442  0.33484084  0.31651349    -0.79600
O286        O  0.56867243  0.40324503  0.43392134    -0.83800
O287        O  0.58061238  0.48304213  0.37503848    -0.78700
O288        O  0.54649172  0.30919249  0.31620743    -0.80400
O289        O  0.65579044  0.36861793  0.42563213    -0.83200
C290        C  0.56939800  0.48800329  0.32442136     0.97600
C291        C  0.54372207  0.41105572  0.39734700     1.05000
O292        O  0.59407478  0.37517995  0.37324462    -1.12200
O293        O  0.61875532  0.30037862  0.45335302    -0.74600
O294        O  0.62645492  0.37540288  0.49275577    -0.78100
O295        O  0.56798269  0.45154727  0.29446951    -0.78800
C296        C  0.62386759  0.32757844  0.49348391     0.96500
O297        O  0.63857419  0.44566402  0.42572286    -0.76700
O298        O  0.58698689  0.26651206  0.34528546    -0.81900
C299        C  0.60020609  0.33823945  0.26983863     0.99100
C300        C  0.55997866  0.26816836  0.32363059     1.05000
O301        O  0.57555335  0.35190457  0.26061614    -0.77600
C302        C  0.65872430  0.41692618  0.43204454     1.03300
Fe303      Fe  0.60291828  0.06510861  0.92945989     1.65800
Fe304      Fe  0.62194188  0.16956241  0.88796836     1.73200
Fe305      Fe  0.56075163  0.10841623  0.80686045     1.54400
O306        O  0.57037055  0.03682386  0.79453938    -0.81300
O307        O  0.58962925  0.22288161  0.84663047    -0.79600
O308        O  0.58141619  0.00630065  0.87471052    -0.83800
O309        O  0.56718163  0.08667744  0.93034900    -0.78700
O310        O  0.57962504  0.13668202  0.76260719    -0.80400
O311        O  0.61949796  0.18985649  0.95461333    -0.83200
C312        C  0.54259736  0.07906584  0.89206504     0.97600
C313        C  0.57170761  0.00047304  0.82447905     1.05000
O314        O  0.59553221  0.11417991  0.87400276    -1.12200
O315        O  0.65720145  0.12088792  0.93036371    -0.74600
O316        O  0.63892645  0.04434255  0.92976762    -0.78100
O317        O  0.53730408  0.07978437  0.84326355    -0.78800
C318        C  0.65951211  0.07263301  0.93707065     0.96500
O319        O  0.62488253  0.11512589  0.99332913    -0.76700
O320        O  0.62473832  0.15521355  0.82036029    -0.79500
C321        C  0.56260897  0.22054531  0.82399219     0.99100
C322        C  0.60442200  0.15117078  0.77307501     1.05000
O323        O  0.54909427  0.17919386  0.81531212    -0.77600
C324        C  0.62323162  0.16306596  0.99405205     1.03300
Fe325      Fe  0.90092267  0.56351900  0.54895801     1.65800
Fe326      Fe  0.88363644  0.66697017  0.59444637     1.73200
Fe327      Fe  0.94388895  0.60390196  0.67366216     1.54400
O328        O  0.93235820  0.53264375  0.68195904    -0.81300
O329        O  0.91695920  0.71936126  0.63563412    -0.79600
O330        O  0.92226885  0.50362405  0.60165986    -0.83800
O331        O  0.93683557  0.58574962  0.54890460    -0.78700
O332        O  0.92584056  0.63087918  0.71984722    -0.80400
O333        O  0.88542745  0.68855442  0.52739392    -0.83200
C334        C  0.96131704  0.57686971  0.58679800     0.97600
C335        C  0.93198684  0.49730581  0.65176328     1.05000
O336        O  0.90922053  0.61149229  0.60634353    -1.12200
O337        O  0.84771513  0.61864632  0.55223477    -0.74600
O338        O  0.86460467  0.54227244  0.54785507    -0.78100
O339        O  0.96671458  0.57613281  0.63568039    -0.78800
C340        C  0.84456594  0.57066492  0.54281778     0.96500
O341        O  0.87916077  0.61465597  0.48642228    -0.76700
O342        O  0.88127843  0.65162144  0.66226651    -0.81900
C343        C  0.94399493  0.71646942  0.65901443     0.99100
C344        C  0.90123369  0.64581581  0.70955039     1.05000
O345        O  0.95713506  0.67481504  0.66921875    -0.77600
C346        C  0.88103332  0.66264415  0.48689824     1.03300
Fe347      Fe  0.89701940  0.91896915  0.04344415     1.65800
Fe348      Fe  0.87990094  0.81713256  0.09196692     1.73200
Fe349      Fe  0.94278956  0.87594307  0.16445799     1.54400
O350        O  0.96335034  0.90488213  0.12255456    -0.81300
O351        O  0.88080302  0.83514109  0.16221845    -0.79600
O352        O  0.93115698  0.89628081  0.03714510    -0.83800
O353        O  0.92043972  0.97824230  0.09674747    -0.78700
O354        O  0.95287601  0.80438103  0.15353692    -0.80400
O355        O  0.84469379  0.86617053  0.05313200    -0.83200
C356        C  0.93226229  0.98398919  0.14750215     0.97600
C357        C  0.95606164  0.90647212  0.07276139     1.05000
O358        O  0.90632872  0.87085110  0.10056916    -1.12200
O359        O  0.87877024  0.79388060  0.02283569    -0.74600
O360        O  0.87322592  0.86736897  0.98153648    -0.78100
O361        O  0.93436699  0.94782914  0.17829000    -0.78800
C362        C  0.87437387  0.81918986  0.98208766     0.96500
O363        O  0.86255910  0.94152028  0.04848014    -0.76700
O364        O  0.91216232  0.76337918  0.13070951    -0.81900
C365        C  0.90258164  0.83642678  0.20789530     0.99100
C366        C  0.93894638  0.76410173  0.14875164     1.05000
O367        O  0.92711023  0.84812542  0.21453725    -0.77600
C368        C  0.84261289  0.91433600  0.04625144     1.03300
C369        C  0.89605875  0.68282472  0.83510748     0.16300
C370        C  0.90010426  0.69110825  0.88694274    -0.32700
C371        C  0.88521191  0.73122409  0.89435362     0.20700
C372        C  0.86716254  0.76185904  0.85231865     0.02900
C373        C  0.86230491  0.75233240  0.80025118    -0.22400
C374        C  0.87713852  0.71225551  0.79283011     0.12100
S375        S  0.91435434  0.63997146  0.81820046    -0.06100
C376        C  0.89568739  0.66131109  0.75328737    -0.09600
C377        C  0.87648708  0.69945372  0.74583609    -0.26200
S378        S  0.85378696  0.81228674  0.87077781    -0.03400
C379        C  0.87225126  0.79116159  0.93566555    -0.16800
C380        C  0.88772581  0.74729559  0.94207843    -0.14800
H381        H  0.91494910  0.66857729  0.92030513     0.20600
H382        H  0.84839108  0.77625287  0.76728158     0.16600
H383        H  0.86375603  0.71878798  0.70832300     0.19100
H384        H  0.90138103  0.72972411  0.98022482     0.12500
C385        C  0.87306878  0.71828579  0.35616394     0.16300
C386        C  0.86679501  0.72840015  0.30339510    -0.32700
C387        C  0.88191195  0.76764040  0.29508102     0.20700
C388        C  0.90257792  0.79540709  0.33720702     0.02900
C389        C  0.90820435  0.78637461  0.38985519    -0.22400
C390        C  0.89290004  0.74740503  0.39814290     0.12100
S391        S  0.85889604  0.66949406  0.37532940    -0.06100
C392        C  0.87940570  0.68948411  0.44041623    -0.09600
C393        C  0.89619990  0.73160269  0.44645898    -0.26200
S394        S  0.92043256  0.83796770  0.31875991    -0.03400
C395        C  0.89913144  0.81912099  0.25347699    -0.16800
C396        C  0.87955768  0.78167032  0.24701985    -0.14800
H397        H  0.85133813  0.70586109  0.27038513     0.20600
H398        H  0.92429544  0.80785259  0.42303580     0.16600
H399        H  0.91100012  0.74838062  0.48456792     0.19100
H400        H  0.86515605  0.76397484  0.20917377     0.12500
C401        C  0.78014964  0.00275201  0.01319853     0.16300
C402        C  0.76206873  0.04455979  0.00054094    -0.32700
C403        C  0.73350414  0.03489775  0.98442512     0.20700
C404        C  0.72362779  0.98573185  0.98180282     0.02900
C405        C  0.74174446  0.94399869  0.99495161    -0.22400
C406        C  0.77021709  0.95361231  0.01044900     0.12100
S407        S  0.81504715  0.00657890  0.03092804    -0.06100
C408        C  0.81635310  0.94120163  0.03430121    -0.09600
C409        C  0.79096386  0.91795276  0.02285070    -0.26200
S410        S  0.68840105  0.98145144  0.96071261    -0.03400
C411        C  0.68668507  0.04666367  0.95489458    -0.16800
C412        C  0.71234389  0.07028986  0.96902108    -0.14800
H413        H  0.76984619  0.08282651  0.00232298     0.20600
H414        H  0.73387936  0.90568068  0.99240268     0.16600
H415        H  0.78770277  0.87737121  0.02234743     0.19100
H416        H  0.71533751  0.11081841  0.96802903     0.12500
C417        C  0.99914326  0.98916385  0.02965328     0.16300
C418        C  0.01375142  0.02990139  0.02269863    -0.32700
C419        C  0.51109489  0.03668436  0.97171824     0.20700
C420        C  0.49461096  0.00470895  0.92926974     0.02900
C421        C  0.47968054  0.96435933  0.93603871    -0.22400
C422        C  0.48252679  0.95729326  0.98719336     0.12100
S423        S  0.99846080  0.97571874  0.08771457    -0.06100
C424        C  0.97504825  0.92726577  0.05403484    -0.09600
C425        C  0.96899531  0.92138592  0.00113239    -0.26200
S426        S  0.49702650  0.01587743  0.87245700    -0.03400
C427        C  0.52124475  0.06298877  0.90700407    -0.16800
C428        C  0.52580004  0.07092686  0.95873770    -0.14800
H429        H  0.02688333  0.05483067  0.05570989     0.20600
H430        H  0.46686815  0.93899819  0.90322400     0.16600
H431        H  0.45358410  0.89482708  0.97305259     0.19100
H432        H  0.04151579  0.09672911  0.98732934     0.12500
C433        C  0.53685777  0.87020750  0.77964240     0.16300
C434        C  0.02686318  0.82078452  0.77717838    -0.32700
C435        C  0.00097404  0.80757855  0.73274398     0.20700
C436        C  0.48562426  0.84168757  0.69222135     0.02900
C437        C  0.49615657  0.89067178  0.69368049    -0.22400
C438        C  0.52207878  0.90393416  0.73824457     0.12100
S439        S  0.56591747  0.89566560  0.83327956    -0.06100
C440        C  0.55833811  0.95214370  0.79913651    -0.09600
C441        C  0.53468088  0.95068914  0.74875540    -0.26200
S442        S  0.95368698  0.81877973  0.64348221    -0.03400
C443        C  0.96167614  0.76232375  0.67772193    -0.16800
C444        C  0.98752730  0.76189651  0.72426727    -0.14800
H445        H  0.03828136  0.79424550  0.80934065     0.20600
H446        H  0.48432341  0.91768776  0.66229470     0.16600
H447        H  0.52590675  0.98324800  0.72293850     0.19100
H448        H  0.99592418  0.72975195  0.75086397     0.12500
C449        C  0.96899410  0.37018176  0.70147806     0.16300
C450        C  0.97794773  0.31980245  0.70861630    -0.32700
C451        C  0.50537152  0.30953630  0.74960481     0.20700
C452        C  0.52333718  0.34739111  0.78223906     0.02900
C453        C  0.01420691  0.39779932  0.77568794    -0.22400
C454        C  0.98659453  0.40795313  0.73506357     0.12100
S455        S  0.93724821  0.39123802  0.65139545    -0.06100
C456        C  0.94752604  0.45120553  0.67736849    -0.09600
C457        C  0.97413747  0.45437905  0.72187697    -0.26200
S458        S  0.55634746  0.32668027  0.82813656    -0.03400
C459        C  0.54528639  0.26632079  0.80377349    -0.16800
C460        C  0.51774966  0.26314560  0.76208659    -0.14800
H461        H  0.96431994  0.28994610  0.68283660     0.20600
H462        H  0.02802080  0.42778426  0.80083094     0.16600
H463        H  0.98439359  0.48940021  0.74187092     0.19100
H464        H  0.50735474  0.22846011  0.74140295     0.12500
C465        C  0.63186798  0.27498713  0.62562023     0.16300
C466        C  0.63796096  0.26553817  0.67848532    -0.32700
C467        C  0.62497473  0.22320189  0.68766267     0.20700
C468        C  0.60652347  0.19198260  0.64620004     0.02900
C469        C  0.60106448  0.20062710  0.59368840    -0.22400
C470        C  0.61423071  0.24257120  0.58460324     0.12100
S471        S  0.64389580  0.32604102  0.60502134    -0.06100
C472        C  0.62559676  0.30229348  0.54084486    -0.09600
C473        C  0.61086236  0.25770576  0.53614341    -0.26200
S474        S  0.59053924  0.14594829  0.66474153    -0.03400
C475        C  0.60942619  0.16825677  0.72929397    -0.16800
C476        C  0.62712629  0.20911204  0.73563404    -0.14800
H477        H  0.65166675  0.29063018  0.71079037     0.20600
H478        H  0.58666040  0.17645613  0.56112551     0.16600
H479        H  0.59763118  0.23815403  0.49877979     0.19100
H480        H  0.63961501  0.22932210  0.77289828     0.12500
C481        C  0.60409361  0.29896569  0.14428889     0.16300
C482        C  0.60067007  0.29203476  0.09281164    -0.32700
C483        C  0.61321379  0.24919075  0.08387262     0.20700
C484        C  0.62827883  0.21443583  0.12401651     0.02900
C485        C  0.63240615  0.22215255  0.17582233    -0.22400
C486        C  0.62010331  0.26520408  0.18486060     0.12100
S487        S  0.58865011  0.34608878  0.16264502    -0.06100
C488        C  0.60471407  0.32057971  0.22585890    -0.09600
C489        C  0.62091203  0.27797942  0.23188338    -0.26200
S490        S  0.63962227  0.16257725  0.10369146    -0.03400
C491        C  0.62452818  0.18880801  0.04080569    -0.16800
C492        C  0.61137725  0.23500816  0.03624912    -0.14800
H493        H  0.58822575  0.31816572  0.06082012     0.20600
H494        H  0.64412839  0.19520002  0.20742120     0.16600
H495        H  0.63169682  0.25612319  0.26837190     0.19100
H496        H  0.60005333  0.25612707  0.99938406     0.12500
C497        C  0.52010549  0.14080530  0.28297152     0.16300
C498        C  0.00999055  0.09106335  0.27881598    -0.32700
C499        C  0.98415908  0.07845620  0.23365675     0.20700
C500        C  0.96916647  0.11333503  0.19366820     0.02900
C501        C  0.47891066  0.16332583  0.19844876    -0.22400
C502        C  0.50450169  0.17613292  0.24395053     0.12100
S503        S  0.55140567  0.16379265  0.33375242    -0.06100
C504        C  0.54278033  0.22188212  0.30267535    -0.09600
C505        C  0.51725431  0.22270339  0.25539686    -0.26200
S506        S  0.93962685  0.08903647  0.13982526    -0.03400
C507        C  0.94713113  0.03164458  0.17237760    -0.16800
C508        C  0.97136439  0.03185026  0.22202237    -0.14800
H509        H  0.02188306  0.06324513  0.30923116     0.20600
H510        H  0.46723677  0.19092577  0.16760931     0.16600
H511        H  0.50860386  0.25579561  0.23036199     0.19100
H512        H  0.98000955  0.99879376  0.24710678     0.12500
C513        C  0.48015973  0.63946083  0.18743763     0.16300
C514        C  0.49206064  0.59168563  0.18985937    -0.32700
C515        C  0.51723126  0.57977527  0.23657472     0.20700
C516        C  0.52975636  0.61338768  0.27924837     0.02900
C517        C  0.01815627  0.66130280  0.27641070    -0.22400
C518        C  0.99329826  0.67343840  0.22967155     0.12100
S519        S  0.94965669  0.66208092  0.13461996    -0.06100
C520        C  0.95555638  0.71795587  0.16978230    -0.09600
C521        C  0.97941270  0.71843287  0.21955738    -0.26200
S522        S  0.55873887  0.59026927  0.33413939    -0.03400
C523        C  0.55433821  0.53488688  0.29901053    -0.16800
C524        C  0.53155306  0.53491402  0.24741918    -0.14800
H525        H  0.48211156  0.56493376  0.15704094     0.20600
H526        H  0.02795354  0.68784642  0.30947035     0.16600
H527        H  0.98639891  0.75054940  0.24674843     0.19100
H528        H  0.52475081  0.50260641  0.22051004     0.12500
C529        C  0.72459987  0.50150702  0.47910108     0.16300
C530        C  0.74401415  0.54192080  0.49738721    -0.32700
C531        C  0.77111074  0.53313446  0.50392211     0.20700
C532        C  0.77840621  0.48606051  0.49256096     0.02900
C533        C  0.75896435  0.44559949  0.47419576    -0.22400
C534        C  0.73187307  0.45435145  0.46787631     0.12100
S535        S  0.69085719  0.50504721  0.46869892    -0.06100
C536        C  0.68624386  0.44219670  0.44908809    -0.09600
C537        C  0.70992462  0.41986000  0.45076661    -0.26200
S538        S  0.81231225  0.48265744  0.50368135    -0.03400
C539        C  0.81691397  0.54533672  0.52413052    -0.16800
C540        C  0.79310620  0.56752171  0.52191185    -0.14800
H541        H  0.73824402  0.57858708  0.50627398     0.20600
H542        H  0.76476557  0.40888484  0.46548584     0.16600
H543        H  0.71096088  0.38091943  0.43975052     0.19100
H544        H  0.79203947  0.60628067  0.53339432     0.12500
C545        C  0.00680030  0.50207896  0.54472689     0.16300
C546        C  0.02031645  0.46123191  0.53527143    -0.32700
C547        C  0.51694850  0.45591947  0.48359483     0.20700
C548        C  0.50121043  0.48988098  0.44312734     0.02900
C549        C  0.48795987  0.53099609  0.45274737    -0.22400
C550        C  0.99113336  0.53608996  0.50425093     0.12100
S551        S  0.00513225  0.51167560  0.60253124    -0.06100
C552        C  0.98226699  0.56090684  0.57096287    -0.09600
C553        C  0.97770907  0.57067089  0.51958282    -0.26200
S554        S  0.50163340  0.47890469  0.38437041    -0.03400
C555        C  0.52396187  0.42889857  0.41526754    -0.16800
C556        C  0.52954614  0.42031964  0.46749893    -0.14800
H557        H  0.03255589  0.43436598  0.56654363     0.20600
H558        H  0.47552243  0.55761102  0.42134238     0.16600
H559        H  0.96265407  0.59795707  0.49257636     0.19100
H560        H  0.54444486  0.39261022  0.49409103     0.12500
loop_ 
_geom_bond_atom_site_label_1 
_geom_bond_atom_site_label_2 
_geom_bond_distance 
_geom_bond_site_symmetry_2 
_ccdc_geom_bond_type 
Fe1          O17   2.020       .  S
Fe1           O7   2.106       .  S
Fe1          O14   2.094       .  S
Fe1           O6   2.016       .  S
Fe1          O12   1.933       .  S
Fe2           O5   2.029       .  S
Fe2           O9   2.131       .  S
Fe2          O13   2.037       .  S
Fe2          O18   2.112       .  S
Fe2          O12   1.929       .  S
Fe3          O21   2.099       .  S
Fe3           O8   2.030       .  S
Fe3          O15   2.031       .  S
Fe3           O4   2.121       .  S
Fe3          O12   1.938       .  S
O4           C11   1.279       .  A
O5           C19   1.266       .  A
O6           C11   1.261       .  A
O7           C10   1.275       .  A
O8           C20   1.266       .  A
O9           C22   1.285       .  A
C10          O15   1.262       .  A
C10         C243   1.469       .  S
C11         C275   1.463       .  S
O13          C16   1.261       .  A
O14          C16   1.270       .  A
C16         C192   1.469       .  S
O17          C22   1.266       .  A
O18          C20   1.279       .  A
C19          O21   1.277       .  A
C19         C208   1.462       .  S
C20         C224   1.470       .  S
C22         C256   1.475       .  S
Fe23         O39   2.088       .  S
Fe23         O29   2.021       .  S
Fe23         O36   2.013       .  S
Fe23         O28   2.103       .  S
Fe23         O34   1.933       .  S
Fe24         O27   2.109       .  S
Fe24         O31   2.036       .  S
Fe24         O35   2.129       .  S
Fe24         O40   2.038       .  S
Fe24         O34   1.937       .  S
Fe25         O43   2.022       .  S
Fe25         O30   2.100       .  S
Fe25         O37   2.120       .  S
Fe25         O26   2.034       .  S
Fe25         O34   1.935       .  S
O26          C33   1.263       .  A
O27          C41   1.278       .  A
O28          C33   1.275       .  A
O29          C32   1.262       .  A
O30          C42   1.277       .  A
O31          C44   1.261       .  A
C32          O37   1.278       .  A
C32         C147   1.466       .  S
C33         C160   1.468   1_545  S
O35          C38   1.285       .  A
O36          C38   1.265       .  A
C38         C131   1.471       .  S
O39          C44   1.269       .  A
O40          C42   1.267       .  A
C41          O43   1.265       .  A
C41         C179   1.468       .  S
C42         C195   1.468       .  S
C44         C211   1.465   1_556  S
Fe45         O61   2.093       .  S
Fe45         O51   2.019       .  S
Fe45         O58   2.018       .  S
Fe45         O50   2.106       .  S
Fe45         O56   1.939       .  S
Fe46         O49   2.111       .  S
Fe46         O53   2.041       .  S
Fe46         O57   2.133       .  S
Fe46         O62   2.038       .  S
Fe46         O56   1.929       .  S
Fe47         O65   2.025       .  S
Fe47         O52   2.101       .  S
Fe47         O59   2.122       .  S
Fe47         O48   2.026       .  S
Fe47         O56   1.941       .  S
O48          C55   1.261       .  A
O49          C63   1.280       .  A
O50          C55   1.274       .  A
O51          C54   1.262       .  A
O52          C64   1.276       .  A
O53          C66   1.260       .  A
C54          O59   1.279       .  A
C54         C272   1.465       .  S
C55         C176   1.461       .  S
O57          C60   1.287       .  A
O58          C60   1.266       .  A
C60         C259   1.475       .  S
O61          C66   1.269       .  A
O62          C64   1.266       .  A
C63          O65   1.265       .  A
C63         C163   1.467       .  S
C64          C96   1.472       .  S
C66         C112   1.468       .  S
Fe67         O83   2.020       .  S
Fe67         O73   2.116       .  S
Fe67         O80   2.100   1_554  S
Fe67         O72   2.023       .  S
Fe67         O78   1.933       .  S
Fe68         O71   2.034       .  S
Fe68         O75   2.121       .  S
Fe68         O79   2.035       .  S
Fe68         O84   2.104       .  S
Fe68         O78   1.934       .  S
Fe69         O87   2.108       .  S
Fe69         O74   2.030       .  S
Fe69         O81   2.032       .  S
Fe69         O70   2.122       .  S
Fe69         O78   1.936       .  S
O70          C77   1.278       .  A
O71          C85   1.266       .  A
O72          C77   1.260       .  A
O73          C76   1.278       .  A
O74          C86   1.267       .  A
O75          C88   1.283       .  A
C76          O81   1.265       .  A
C76         C227   1.472   1_565  S
C77         C144   1.467       .  S
O79          C82   1.261   1_554  A
O80          C82   1.272       .  A
C82          C99   1.470       .  S
O83          C88   1.265       .  A
O84          C86   1.277       .  A
C85          O87   1.277       .  A
C85         C115   1.471       .  S
C86         C240   1.461       .  S
C88         C128   1.471       .  S
C89          S95   1.715       .  A
C89          C94   1.386       .  A
C89          C90   1.402       .  A
C90          C91   1.406       .  A
C90         H101   1.082       .  S
C91         C100   1.367       .  A
C91          C92   1.386       .  A
C92          S98   1.713       .  A
C92          C93   1.399       .  A
C93          C94   1.403       .  A
C93         H102   1.082       .  S
C94          C97   1.364       .  A
S95          C96   1.723       .  A
C96          C97   1.387       .  A
C97         H103   1.083       .  S
S98          C99   1.720       .  A
C99         C100   1.388       .  A
C100        H104   1.083       .  S
C105        S111   1.712       .  A
C105        C110   1.387       .  A
C105        C106   1.400       .  A
C106        C107   1.403       .  A
C106        H117   1.083       .  S
C107        C116   1.365       .  A
C107        C108   1.386       .  A
C108        S114   1.715       .  A
C108        C109   1.401       .  A
C109        C110   1.404       .  A
C109        H118   1.083       .  S
C110        C113   1.367       .  A
S111        C112   1.720       .  A
C112        C113   1.387       .  A
C113        H119   1.083       .  S
S114        C115   1.722       .  A
C115        C116   1.387       .  A
C116        H120   1.083       .  S
C121        S127   1.698       .  A
C121        C126   1.388   1_545  A
C121        C122   1.402       .  A
C122        C123   1.400   1_554  A
C122        H133   1.083       .  S
C123        C132   1.375       .  A
C123        C124   1.388   1_545  A
C124        S130   1.695       .  A
C124        C125   1.401       .  A
C125        C126   1.398   1_556  A
C125        H134   1.083       .  S
C126        C129   1.374       .  A
S127        C128   1.727   1_545  A
C128        C129   1.384       .  A
C129        H135   1.083       .  S
S130        C131   1.727   1_565  A
C131        C132   1.385       .  A
C132        H136   1.083       .  S
C137        S143   1.710       .  A
C137        C138   1.399   1_565  A
C137        C422   1.386   1_554  A
C138        C419   1.402   1_554  A
C138        H149   1.082       .  S
C139        C148   1.363       .  A
C139        C140   1.386   1_455  A
C139        C418   1.402   1_556  A
C140        S146   1.711       .  A
C140        C141   1.400   1_545  A
C141        C142   1.403       .  A
C141        H150   1.082       .  S
C142        C417   1.386   1_556  A
C142        C425   1.364   1_556  A
S143        C144   1.721       .  A
C144        C145   1.389       .  A
C145        C422   1.364   1_554  A
C145        H431   1.083   1_554  S
S146        C147   1.721   1_655  A
C147        C148   1.388       .  A
C148        H432   1.083       .  S
H151        C425   1.083   1_556  S
H152        C428   1.083       .  S
C153        S159   1.710       .  A
C153        C158   1.386       .  A
C153        C434   1.398       .  A
C154        C155   1.402       .  A
C154        C433   1.398       .  A
C154        H165   1.082       .  S
C155        C164   1.363       .  A
C155        C436   1.386       .  A
C156        S442   1.715       .  A
C156        C157   1.401       .  A
C156        C435   1.386   1_655  A
C157        C158   1.405   1_655  A
C157        H166   1.082       .  S
C158        C161   1.366       .  A
S159        C160   1.720       .  A
C160        C161   1.388       .  A
C161        H167   1.083       .  S
S162        C163   1.720       .  A
S162        C436   1.715       .  A
C163        C164   1.386       .  A
C164        H168   1.083       .  S
C169        S175   1.712       .  A
C169        C174   1.387       .  A
C169        C170   1.397       .  A
C170        C451   1.401       .  A
C170        H181   1.083       .  S
C171        C180   1.359       .  A
C171        C172   1.386       .  A
C171        C450   1.401   1_455  A
C172        S178   1.716       .  A
C172        C453   1.400       .  A
C173        C174   1.404       .  A
C173        C452   1.400       .  A
C173        H182   1.083       .  S
C174        C177   1.362       .  A
S175        C176   1.718       .  A
C176        C177   1.386       .  A
C177        H183   1.084       .  S
S178        C179   1.721       .  A
C179        C180   1.386       .  A
C180        H184   1.084       .  S
C185        S191   1.714       .  A
C185        C190   1.386       .  A
C185        C186   1.402       .  A
C186        C187   1.405       .  A
C186        H197   1.082       .  S
C187        C196   1.367       .  A
C187        C188   1.387       .  A
C188        S194   1.710       .  A
C188        C189   1.399       .  A
C189        C190   1.402       .  A
C189        H198   1.082       .  S
C190        C193   1.364       .  A
S191        C192   1.722       .  A
C192        C193   1.386       .  A
C193        H199   1.083       .  S
S194        C195   1.719       .  A
C195        C196   1.388       .  A
C196        H200   1.083       .  S
C201        S207   1.713       .  A
C201        C206   1.387       .  A
C201        C202   1.399       .  A
C202        C203   1.403       .  A
C202        H213   1.083       .  S
C203        C212   1.364       .  A
C203        C204   1.387       .  A
C204        S210   1.710       .  A
C204        C205   1.398       .  A
C205        C206   1.401       .  A
C205        H214   1.083       .  S
C206        C209   1.361       .  A
S207        C208   1.719       .  A
C208        C209   1.384       .  A
C209        H215   1.084       .  S
S210        C211   1.720       .  A
C211        C212   1.386       .  A
C212        H216   1.084   1_554  S
C217        S223   1.716       .  A
C217        C222   1.386       .  A
C217        C498   1.402       .  A
C218        C219   1.405       .  A
C218        C497   1.402       .  A
C218        H229   1.082       .  S
C219        C228   1.367       .  A
C219        C220   1.386       .  A
C220        S226   1.714       .  A
C220        C501   1.400       .  A
C221        C222   1.404   1_655  A
C221        C500   1.400       .  A
C221        H230   1.082       .  S
C222        C225   1.365       .  A
S223        C224   1.721       .  A
C224        C225   1.387       .  A
C225        H231   1.083       .  S
S226        C227   1.721       .  A
C227        C228   1.389       .  A
C228        H232   1.083   1_545  S
C233        S519   1.716       .  A
C233        C234   1.402       .  A
C233        C518   1.387       .  A
C234        C235   1.406   1_655  A
C234        H245   1.083       .  S
C235        C244   1.367       .  A
C235        C236   1.386       .  A
C236        S242   1.708       .  A
C236        C517   1.396       .  A
C237        C238   1.399       .  A
C237        C516   1.396       .  A
C237        H246   1.083       .  S
C238        C241   1.360       .  A
C238        C513   1.387       .  A
S239        C240   1.721       .  A
S239        C513   1.716       .  A
C240        C241   1.382       .  A
C241        H247   1.084       .  S
S242        C243   1.719       .  A
C243        C244   1.390       .  A
C244        H248   1.083       .  S
C249        S255   1.698       .  A
C249        C254   1.387       .  A
C249        C250   1.402       .  A
C250        C251   1.400       .  A
C250        H261   1.083       .  S
C251        C260   1.376       .  A
C251        C252   1.387       .  A
C252        S258   1.699       .  A
C252        C253   1.404       .  A
C253        C254   1.401       .  A
C253        H262   1.083       .  S
C254        C257   1.378       .  A
S255        C256   1.727       .  A
C256        C257   1.387       .  A
C257        H263   1.083       .  S
S258        C259   1.729       .  A
C259        C260   1.385       .  A
C260        H264   1.083       .  S
C265        S271   1.711       .  A
C265        C270   1.386       .  A
C265        C266   1.399       .  A
C266        C547   1.403       .  A
C266        H277   1.082       .  S
C267        C276   1.362       .  A
C267        C268   1.386       .  A
C267        C546   1.403       .  A
C268        S274   1.709       .  A
C268        C269   1.397   1_455  A
C269        C550   1.402       .  A
C269        H278   1.082       .  S
C270        C273   1.361       .  A
C270        C549   1.402       .  A
S271        C272   1.721       .  A
C272        C273   1.388       .  A
C273        H279   1.083       .  S
S274        C275   1.720       .  A
C275        C276   1.389       .  A
C276        H280   1.083       .  S
Fe281       O297   2.020       .  S
Fe281       O287   2.106       .  S
Fe281       O294   2.094       .  S
Fe281       O286   2.016       .  S
Fe281       O292   1.934       .  S
Fe282       O285   2.029       .  S
Fe282       O289   2.131       .  S
Fe282       O293   2.037       .  S
Fe282       O298   2.112       .  S
Fe282       O292   1.929       .  S
Fe283       O301   2.099       .  S
Fe283       O288   2.031       .  S
Fe283       O295   2.031       .  S
Fe283       O284   2.121       .  S
Fe283       O292   1.938       .  S
O284        C291   1.279       .  A
O285        C299   1.266       .  A
O286        C291   1.261       .  A
O287        C290   1.275       .  A
O288        C300   1.266       .  A
O289        C302   1.285       .  A
C290        O295   1.262       .  A
C290        C523   1.469       .  S
C291        C555   1.463       .  S
O293        C296   1.261       .  A
O294        C296   1.270       .  A
C296        C472   1.469       .  S
O297        C302   1.266       .  A
O298        C300   1.279       .  A
C299        O301   1.277       .  A
C299        C488   1.462       .  S
C300        C504   1.470       .  S
C302        C536   1.475       .  S
Fe303       O319   2.088       .  S
Fe303       O309   2.021       .  S
Fe303       O316   2.013       .  S
Fe303       O308   2.102       .  S
Fe303       O314   1.933       .  S
Fe304       O307   2.109       .  S
Fe304       O311   2.036       .  S
Fe304       O315   2.129       .  S
Fe304       O320   2.038       .  S
Fe304       O314   1.937       .  S
Fe305       O323   2.022       .  S
Fe305       O310   2.100       .  S
Fe305       O317   2.120       .  S
Fe305       O306   2.034       .  S
Fe305       O314   1.935       .  S
O306        C313   1.263       .  A
O307        C321   1.278       .  A
O308        C313   1.275       .  A
O309        C312   1.262       .  A
O310        C322   1.277       .  A
O311        C324   1.261       .  A
C312        O317   1.278       .  A
C312        C427   1.466       .  S
C313        C440   1.468   1_545  S
O315        C318   1.285       .  A
O316        C318   1.265       .  A
C318        C411   1.470       .  S
O319        C324   1.269       .  A
O320        C322   1.267       .  A
C321        O323   1.265       .  A
C321        C459   1.468       .  S
C322        C475   1.468       .  S
C324        C491   1.465   1_556  S
Fe325       O341   2.093       .  S
Fe325       O331   2.019       .  S
Fe325       O338   2.018       .  S
Fe325       O330   2.106       .  S
Fe325       O336   1.939       .  S
Fe326       O329   2.111       .  S
Fe326       O333   2.041       .  S
Fe326       O337   2.133       .  S
Fe326       O342   2.038       .  S
Fe326       O336   1.929       .  S
Fe327       O345   2.025       .  S
Fe327       O332   2.101       .  S
Fe327       O339   2.122       .  S
Fe327       O328   2.026       .  S
Fe327       O336   1.941       .  S
O328        C335   1.261       .  A
O329        C343   1.280       .  A
O330        C335   1.274       .  A
O331        C334   1.262       .  A
O332        C344   1.276       .  A
O333        C346   1.260       .  A
C334        O339   1.279       .  A
C334        C552   1.465       .  S
C335        C456   1.461       .  S
O337        C340   1.287       .  A
O338        C340   1.266       .  A
C340        C539   1.475       .  S
O341        C346   1.269       .  A
O342        C344   1.266       .  A
C343        O345   1.265       .  A
C343        C443   1.468       .  S
C344        C376   1.472       .  S
C346        C392   1.468       .  S
Fe347       O363   2.020       .  S
Fe347       O353   2.116       .  S
Fe347       O360   2.100   1_554  S
Fe347       O352   2.024       .  S
Fe347       O358   1.934       .  S
Fe348       O351   2.034       .  S
Fe348       O355   2.121       .  S
Fe348       O359   2.035       .  S
Fe348       O364   2.104       .  S
Fe348       O358   1.934       .  S
Fe349       O367   2.108       .  S
Fe349       O354   2.030       .  S
Fe349       O361   2.032       .  S
Fe349       O350   2.122       .  S
Fe349       O358   1.936       .  S
O350        C357   1.278       .  A
O351        C365   1.266       .  A
O352        C357   1.260       .  A
O353        C356   1.278       .  A
O354        C366   1.267       .  A
O355        C368   1.283       .  A
C356        O361   1.265       .  A
C356        C507   1.472   1_565  S
C357        C424   1.467       .  S
O359        C362   1.261   1_554  A
O360        C362   1.272       .  A
C362        C379   1.470       .  S
O363        C368   1.265       .  A
O364        C366   1.277       .  A
C365        O367   1.277       .  A
C365        C395   1.471       .  S
C366        C520   1.461       .  S
C368        C408   1.471       .  S
C369        S375   1.715       .  A
C369        C374   1.386       .  A
C369        C370   1.402       .  A
C370        C371   1.406       .  A
C370        H381   1.082       .  S
C371        C380   1.367       .  A
C371        C372   1.386       .  A
C372        S378   1.713       .  A
C372        C373   1.399       .  A
C373        C374   1.403       .  A
C373        H382   1.082       .  S
C374        C377   1.364       .  A
S375        C376   1.723       .  A
C376        C377   1.387       .  A
C377        H383   1.083       .  S
S378        C379   1.720       .  A
C379        C380   1.388       .  A
C380        H384   1.083       .  S
C385        S391   1.712       .  A
C385        C390   1.387       .  A
C385        C386   1.400       .  A
C386        C387   1.403       .  A
C386        H397   1.083       .  S
C387        C396   1.365       .  A
C387        C388   1.386       .  A
C388        S394   1.715       .  A
C388        C389   1.401       .  A
C389        C390   1.404       .  A
C389        H398   1.083       .  S
C390        C393   1.367       .  A
S391        C392   1.720       .  A
C392        C393   1.387       .  A
C393        H399   1.083       .  S
S394        C395   1.722       .  A
C395        C396   1.387       .  A
C396        H400   1.083       .  S
C401        S407   1.698       .  A
C401        C406   1.388   1_545  A
C401        C402   1.402       .  A
C402        C403   1.400   1_554  A
C402        H413   1.083       .  S
C403        C412   1.375       .  A
C403        C404   1.388   1_545  A
C404        S410   1.695       .  A
C404        C405   1.401       .  A
C405        C406   1.398   1_556  A
C405        H414   1.083       .  S
C406        C409   1.374       .  A
S407        C408   1.727   1_545  A
C408        C409   1.384       .  A
C409        H415   1.083       .  S
S410        C411   1.727   1_565  A
C411        C412   1.385       .  A
C412        H416   1.083       .  S
C417        S423   1.710       .  A
C417        C418   1.399   1_665  A
C418        H429   1.082       .  S
C419        C428   1.363       .  A
C419        C420   1.386       .  A
C420        S426   1.711       .  A
C420        C421   1.400   1_545  A
C421        C422   1.403       .  A
C421        H430   1.082       .  S
S423        C424   1.721       .  A
C424        C425   1.389       .  A
S426        C427   1.721       .  A
C427        C428   1.388       .  A
C433        S439   1.710       .  A
C433        C438   1.386       .  A
C434        C435   1.402       .  A
C434        H445   1.082       .  S
C435        C444   1.363   1_455  A
C436        C437   1.401       .  A
C437        C438   1.405       .  A
C437        H446   1.082       .  S
C438        C441   1.366       .  A
S439        C440   1.720       .  A
C440        C441   1.388       .  A
C441        H447   1.083       .  S
S442        C443   1.720       .  A
C443        C444   1.386       .  A
C444        H448   1.083       .  S
C449        S455   1.712       .  A
C449        C454   1.387       .  A
C449        C450   1.397       .  A
C450        H461   1.083       .  S
C451        C460   1.359       .  A
C451        C452   1.386       .  A
C452        S458   1.716       .  A
C453        C454   1.404   1_455  A
C453        H462   1.083       .  S
C454        C457   1.362       .  A
S455        C456   1.718       .  A
C456        C457   1.386       .  A
C457        H463   1.084       .  S
S458        C459   1.721       .  A
C459        C460   1.386       .  A
C460        H464   1.084       .  S
C465        S471   1.714       .  A
C465        C470   1.386       .  A
C465        C466   1.402       .  A
C466        C467   1.405       .  A
C466        H477   1.082       .  S
C467        C476   1.367       .  A
C467        C468   1.387       .  A
C468        S474   1.710       .  A
C468        C469   1.399       .  A
C469        C470   1.402       .  A
C469        H478   1.082       .  S
C470        C473   1.364       .  A
S471        C472   1.722       .  A
C472        C473   1.386       .  A
C473        H479   1.083       .  S
S474        C475   1.719       .  A
C475        C476   1.388       .  A
C476        H480   1.083       .  S
C481        S487   1.713       .  A
C481        C486   1.387       .  A
C481        C482   1.399       .  A
C482        C483   1.403       .  A
C482        H493   1.083       .  S
C483        C492   1.364       .  A
C483        C484   1.387       .  A
C484        S490   1.710       .  A
C484        C485   1.398       .  A
C485        C486   1.401       .  A
C485        H494   1.083       .  S
C486        C489   1.361       .  A
S487        C488   1.719       .  A
C488        C489   1.384       .  A
C489        H495   1.084       .  S
S490        C491   1.720       .  A
C491        C492   1.386       .  A
C492        H496   1.084   1_554  S
C497        S503   1.716       .  A
C497        C502   1.386       .  A
C498        C499   1.405   1_455  A
C498        H509   1.082       .  S
C499        C508   1.367       .  A
C499        C500   1.386       .  A
C500        S506   1.714       .  A
C501        C502   1.404       .  A
C501        H510   1.082       .  S
C502        C505   1.365       .  A
S503        C504   1.721       .  A
C504        C505   1.387       .  A
C505        H511   1.083       .  S
S506        C507   1.721       .  A
C507        C508   1.389       .  A
C508        H512   1.083   1_545  S
C513        C514   1.402       .  A
C514        C515   1.406       .  A
C514        H525   1.083       .  S
C515        C524   1.367       .  A
C515        C516   1.386       .  A
C516        S522   1.708       .  A
C517        C518   1.399   1_455  A
C517        H526   1.083       .  S
C518        C521   1.360       .  A
S519        C520   1.721       .  A
C520        C521   1.382       .  A
C521        H527   1.084       .  S
S522        C523   1.719       .  A
C523        C524   1.390       .  A
C524        H528   1.083       .  S
C529        S535   1.698       .  A
C529        C534   1.387       .  A
C529        C530   1.402       .  A
C530        C531   1.400       .  A
C530        H541   1.083       .  S
C531        C540   1.376       .  A
C531        C532   1.387       .  A
C532        S538   1.699       .  A
C532        C533   1.404       .  A
C533        C534   1.401       .  A
C533        H542   1.083       .  S
C534        C537   1.378       .  A
S535        C536   1.727       .  A
C536        C537   1.387       .  A
C537        H543   1.083       .  S
S538        C539   1.729       .  A
C539        C540   1.385       .  A
C540        H544   1.083       .  S
C545        S551   1.711       .  A
C545        C550   1.386   1_455  A
C545        C546   1.399       .  A
C546        H557   1.082       .  S
C547        C556   1.362       .  A
C547        C548   1.386       .  A
C548        S554   1.710       .  A
C548        C549   1.397       .  A
C549        H558   1.082       .  S
C550        C553   1.361       .  A
S551        C552   1.721   1_455  A
C552        C553   1.388       .  A
C553        H559   1.083       .  S
S554        C555   1.720       .  A
C555        C556   1.389       .  A
C556        H560   1.083       .  S
