geometry optimzed in LAMMPS
_audit_creation_date              2020-12-01 
_audit_creation_method            'lammps2cif' 
_symmetry_space_group_name_H-M    'P1' 
_symmetry_Int_Tables_number       1 
_symmetry_cell_setting            triclinic 
loop_ 
_symmetry_equiv_pos_as_xyz 
  x,y,z 
_cell_length_a                    35.55991598 
_cell_length_b                    39.0596729254133 
_cell_length_c                    43.57366473640161 
_cell_angle_alpha                 89.92713321743068 
_cell_angle_beta                  93.87621175787439 
_cell_angle_gamma                 89.6530075080122 
loop_ 
_atom_site_label 
_atom_site_type_symbol 
_atom_site_fract_x 
_atom_site_fract_y 
_atom_site_fract_z 
_atom_site_charge 
O1          O  0.80508381  0.33732691  0.38588082    -0.81400
C2          C  0.85509648  0.25665494  0.28948996     0.97900
O3          O  0.86975655  0.28474583  0.29821497    -0.70600
O4          O  0.80941196  0.32204346  0.29895267    -0.74200
Al5        Al  0.85061656  0.31695687  0.32708761     1.49000
C6          C  0.77548460  0.32773141  0.30380830     0.93200
O7          O  0.75510231  0.26018541  0.35099217    -0.80400
O8          O  0.85221387  0.24622058  0.39412757    -0.73900
Al9        Al  0.78458349  0.29769735  0.36639637     1.90100
O10         O  0.79813038  0.22036019  0.35432052    -0.73000
O11         O  0.89800654  0.25752326  0.35047687    -0.72900
O12         O  0.83911278  0.23822776  0.30844768    -0.78500
O13         O  0.89503343  0.31367923  0.35386371    -0.76700
O14         O  0.82647374  0.28629291  0.34862603    -1.12900
O15         O  0.83582697  0.35736439  0.34874479    -0.72000
C16         C  0.81824122  0.36253514  0.37247594     0.98700
C17         C  0.76376796  0.22901761  0.35208072     0.95100
Al18       Al  0.84526354  0.24402456  0.35150575     1.55600
O19         O  0.76315348  0.32327428  0.33036364    -0.76700
C20         C  0.91389405  0.28612696  0.35603456     0.99200
C21         C  0.82940447  0.25615874  0.41314721     0.94100
O22         O  0.80038203  0.27382309  0.40424925    -0.82000
O23         O  0.69523424  0.44901318  0.09418288    -0.81400
C24         C  0.63148793  0.46721319  0.20489572     0.97900
O25         O  0.64771543  0.48535891  0.18586189    -0.70600
O26         O  0.69191263  0.50135885  0.14153967    -0.74200
Al27       Al  0.64430976  0.47794235  0.14291117     1.51400
C28         C  0.72604681  0.49250154  0.14631995     0.93200
O29         O  0.72454488  0.39780801  0.16922718    -0.80400
O30         O  0.65394930  0.36481605  0.14835617    -0.73900
Al31       Al  0.70638860  0.42419800  0.13258935     1.90100
O32         O  0.67690306  0.40146467  0.19895370    -0.73000
O33         O  0.59451273  0.40842686  0.14042861    -0.72900
O34         O  0.61656747  0.43919661  0.19612777    -0.78500
O35         O  0.59127149  0.46460614  0.14167251    -0.76700
O36         O  0.66302604  0.43594275  0.14788283    -1.12900
O37         O  0.64034844  0.47370847  0.10040620    -0.72000
C38         C  0.66633688  0.46569060  0.08348344     0.98700
C39         C  0.71079992  0.39427267  0.19534571     0.95100
Al40       Al  0.63746928  0.40589321  0.16890756     1.55600
O41         O  0.73450818  0.46142900  0.15003037    -0.76700
C42         C  0.57560502  0.43581388  0.13645354     0.99200
C43         C  0.67245259  0.35977130  0.12499160     0.94100
O44         O  0.68605071  0.38508863  0.11188721    -0.82000
O45         O  0.67960091  0.08257146  0.35879343    -0.81400
C46         C  0.63705307  0.00335709  0.45480791     0.97900
O47         O  0.61885111  0.03028930  0.44610176    -0.70600
O48         O  0.67504377  0.07080167  0.44668076    -0.74200
Al49       Al  0.63620725  0.06444512  0.41738540     1.49000
C50         C  0.70782291  0.08026693  0.44248966     0.93200
O51         O  0.73510104  0.01155139  0.39859980    -0.80400
O52         O  0.63853777  0.99606249  0.35080697    -0.73900
Al53       Al  0.70417356  0.04685767  0.38027645     1.90100
O54         O  0.69523469  0.46999412  0.38955800    -0.73000
O55         O  0.59296376  0.00328382  0.39429688    -0.72900
O56         O  0.65333271  0.48592721  0.43528700    -0.78500
O57         O  0.59255889  0.05938195  0.38959477    -0.76700
O58         O  0.66264775  0.03442817  0.39681669    -1.12900
O59         O  0.65192252  0.10658154  0.39544117    -0.72000
C60         C  0.67084701  0.10947975  0.37179979     0.98700
C61         C  0.72876833  0.48022833  0.39473464     0.95100
Al62       Al  0.64629746  0.99196134  0.39294446     1.55600
O63         O  0.72190150  0.07552179  0.41645476    -0.76700
C64         C  0.57520348  0.03105418  0.38801660     0.99200
C65         C  0.66217849  0.00545512  0.33244571     0.94100
O66         O  0.69223786  0.02111733  0.34191741    -0.82000
O67         O  0.79916312  0.20065072  0.15329541    -0.81400
C68         C  0.85482577  0.21486240  0.04102339     0.97900
O69         O  0.84041541  0.23409630  0.06033238    -0.70600
O70         O  0.79983074  0.25220882  0.10666837    -0.74200
Al71       Al  0.84703863  0.22765668  0.10271478     1.49000
C72         C  0.76567897  0.24378342  0.10193166     0.93200
O73         O  0.76623776  0.14762028  0.07886448    -0.80400
O74         O  0.83626579  0.11383348  0.10088972    -0.73900
Al75       Al  0.78554307  0.17555502  0.11506370     1.90100
O76         O  0.81385930  0.14913661  0.04927365    -0.73000
O77         O  0.89636326  0.15800051  0.10618168    -0.72900
O78         O  0.87164181  0.18721064  0.04944979    -0.78500
O79         O  0.89938498  0.21389129  0.10111796    -0.76700
O80         O  0.82806498  0.18584500  0.09881560    -1.12900
O81         O  0.85447321  0.22318562  0.14481036    -0.72000
C82         C  0.82982989  0.21526648  0.16283272     0.98700
C83         C  0.78056645  0.14113441  0.05322658     0.95100
Al84       Al  0.85293546  0.15452203  0.07847193     1.55600
O85         O  0.75740532  0.21291630  0.09710106    -0.76700
C86         C  0.91521190  0.18538306  0.10781817     0.99200
C87         C  0.81727640  0.11111319  0.12441334     0.94100
O88         O  0.80645839  0.13799350  0.13651619    -0.82000
O89         O  0.18841026  0.32547674  0.35552953    -0.81400
C90         C  0.13395377  0.25961767  0.45686052     0.97900
O91         O  0.12040468  0.28803318  0.44675052    -0.70600
O92         O  0.17865070  0.32550914  0.44207141    -0.74200
Al93       Al  0.13892854  0.31660647  0.41421103     1.49000
C94         C  0.21291846  0.32904563  0.43833584     0.93200
O95         O  0.23321579  0.25318274  0.40233400    -0.80400
O96         O  0.13742426  0.24076812  0.35285582    -0.73900
Al97       Al  0.20690533  0.28916327  0.38043023     1.90100
O98         O  0.18954288  0.21473583  0.39532283    -0.73000
O99         O  0.09047525  0.25615880  0.39516831    -0.72900
O100        O  0.14776919  0.23850868  0.43877508    -0.78500
O101        O  0.09482062  0.31143497  0.38774529    -0.76700
O102        O  0.16319078  0.28241943  0.39671726    -1.12900
O103        O  0.15473687  0.35280411  0.38733093    -0.72000
C104        C  0.17395866  0.35294213  0.36391430     0.98700
C105        C  0.22399106  0.22225079  0.40020029     0.95100
Al106      Al  0.14288618  0.24094555  0.39580064     1.55600
O107        O  0.22705557  0.31952020  0.41362348    -0.76700
C108        C  0.07534851  0.28462879  0.38738920     0.99200
C109        C  0.16366333  0.24476113  0.33515599     0.94100
O110        O  0.19379101  0.26003267  0.34490055    -0.82000
O111        O  0.29529365  0.44887200  0.14857618    -0.81400
C112        C  0.35048056  0.45433066  0.03550404     0.97900
O113        O  0.33788293  0.47549860  0.05425930    -0.70600
O114        O  0.29909413  0.49972255  0.09952553    -0.74200
Al115      Al  0.34426117  0.47262764  0.09705946     1.49000
C116        C  0.26474600  0.49319024  0.09412037     0.93200
O117        O  0.25899656  0.39903188  0.07425676    -0.80400
O118        O  0.33820869  0.36146255  0.10787550    -0.73900
Al119      Al  0.27949380  0.42429211  0.11030731     1.90100
O120        O  0.31021714  0.38365984  0.05214374    -0.73000
O121        O  0.39482127  0.40467642  0.10426495    -0.72900
O122        O  0.36440776  0.42562800  0.04485236    -0.78500
O123        O  0.39655250  0.45936157  0.09562645    -0.76700
O124        O  0.32423942  0.43073634  0.09565847    -1.12900
O125        O  0.35054246  0.47139556  0.13998437    -0.72000
C126        C  0.32580325  0.46398374  0.15840754     0.98700
C127        C  0.27509722  0.38511988  0.05222513     0.95100
Al128      Al  0.34993888  0.39680217  0.07896140     1.55600
O129        O  0.25494897  0.46269589  0.09115751    -0.76700
C130        C  0.41333333  0.43192196  0.10366109     0.99200
C131        C  0.31385509  0.35939315  0.12759814     0.94100
O132        O  0.29267872  0.38439249  0.13176066    -0.82000
O133        O  0.19552636  0.20517450  0.09313197    -0.81400
C134        C  0.13839706  0.20886753  0.20571059     0.97900
O135        O  0.15182655  0.23019226  0.18769967    -0.70600
O136        O  0.19321599  0.25207779  0.14378088    -0.74200
Al137      Al  0.14604226  0.22780992  0.14466766     1.49000
C138        C  0.22716027  0.24291960  0.14910444     0.93200
O139        O  0.22682682  0.14548294  0.16343397    -0.80400
O140        O  0.15656262  0.11452089  0.13860490    -0.73900
Al141      Al  0.20800350  0.17659013  0.12946784     1.90100
O142        O  0.17869839  0.14461890  0.19246950    -0.73000
O143        O  0.09677380  0.15874666  0.13639322    -0.72900
O144        O  0.12115177  0.18258328  0.19501120    -0.78500
O145        O  0.09373532  0.21404441  0.14437882    -0.76700
O146        O  0.16498630  0.18562955  0.14575911    -1.12900
O147        O  0.13992347  0.22768758  0.10194270    -0.72000
C148        C  0.16494410  0.22039218  0.08386751     0.98700
C149        C  0.21218099  0.13722549  0.18841253     0.95100
Al150      Al  0.13995314  0.15275002  0.16376561     1.55600
O151        O  0.23537157  0.21162928  0.15080374    -0.76700
C152        C  0.07769347  0.18611909  0.13657327     0.99200
C153        C  0.17583918  0.11362337  0.11517933     0.94100
O154        O  0.18757716  0.14121379  0.10513828    -0.82000
O155        O  0.29424075  0.07479286  0.38377568    -0.81400
C156        C  0.35156068  0.00257959  0.28838075     0.97900
O157        O  0.36815902  0.02983325  0.29821164    -0.70600
O158        O  0.31357859  0.07163443  0.30021730    -0.74200
Al159      Al  0.35039540  0.06094805  0.32993336     1.49000
C160        C  0.27897933  0.07642041  0.30105574     0.93200
O161        O  0.25334182  0.00115891  0.33892695    -0.80400
O162        O  0.34616181  0.98879259  0.39241615    -0.73900
Al163      Al  0.27835730  0.03760642  0.36009369     1.90100
O164        O  0.29525824  0.46183085  0.35069133    -0.73000
O165        O  0.39506194  0.99864346  0.35055169    -0.72900
O166        O  0.33789797  0.48204857  0.30696760    -0.78500
O167        O  0.39290741  0.05362390  0.35835679    -0.76700
O168        O  0.32329406  0.02867437  0.34677566    -1.12900
O169        O  0.33437523  0.09936577  0.35578946    -0.72000
C170        C  0.31107132  0.10126054  0.37666445     0.98700
C171        C  0.26163015  0.47018054  0.34308600     0.95100
Al172      Al  0.34214186  0.98633277  0.34979771     1.55600
O173        O  0.26172688  0.06652465  0.32425350    -0.76700
C174        C  0.41161631  0.02606244  0.35885230     0.99200
C175        C  0.31949157  0.99601696  0.40900070     0.94100
O176        O  0.28919745  0.01076699  0.39806705    -0.82000
C177        C  0.23222445  0.11839640  0.21447313    -0.05000
C178        C  0.21184965  0.09383450  0.23087519    -0.02100
C179        C  0.22540526  0.08216387  0.26024985     0.02900
C180        C  0.26037462  0.09355895  0.27322969    -0.05000
C181        C  0.28093423  0.11797283  0.25663746    -0.02100
C182        C  0.26729125  0.12964165  0.22721917     0.02900
C183        C  0.17645850  0.08026765  0.21758800     0.37500
C184        C  0.31556881  0.13264058  0.27029066     0.37500
C185        C  0.28885943  0.15402566  0.21052699     0.35900
C186        C  0.20303720  0.05852744  0.27701376     0.35900
N187        N  0.30614644  0.17331125  0.19710274    -0.38900
N188        N  0.18487031  0.03990588  0.29036672    -0.38900
N189        N  0.34316751  0.14451519  0.28094977    -0.38300
N190        N  0.14805919  0.06952453  0.20740458    -0.38300
C191        C  0.25765204  0.26915590  0.15142481    -0.05000
C192        C  0.28945215  0.26602218  0.13363270    -0.02100
C193        C  0.31336353  0.29443183  0.12993431     0.02900
C194        C  0.30491981  0.32632147  0.14327828    -0.05000
C195        C  0.27847973  0.32672504  0.16629646    -0.02100
C196        C  0.25395971  0.29881596  0.16944999     0.02900
C197        C  0.29562077  0.23482720  0.11658802     0.37500
C198        C  0.27572694  0.35629223  0.18620889     0.37500
C199        C  0.22440076  0.30110718  0.19074182     0.35900
C200        C  0.34519003  0.29113020  0.11100289     0.35900
N201        N  0.20091949  0.30321801  0.20779757    -0.38900
N202        N  0.37060814  0.28835654  0.09592693    -0.38900
N203        N  0.27367062  0.37983027  0.20213476    -0.38300
N204        N  0.30048116  0.21007751  0.10278458    -0.38300
C205        C  0.19016693  0.08057052  0.10191107    -0.05000
C206        C  0.17997171  0.04825771  0.11347916    -0.02100
C207        C  0.20237173  0.01880392  0.10859587     0.02900
C208        C  0.23588454  0.02147283  0.09286838    -0.05000
C209        C  0.24273767  0.05231565  0.07749416    -0.02100
C210        C  0.21946130  0.08129870  0.08104914     0.02900
C211        C  0.14633148  0.04500390  0.13024213     0.37500
C212        C  0.27356692  0.05425377  0.05743893     0.37500
C213        C  0.22658670  0.11173405  0.06316165     0.35900
C214        C  0.19116902  0.48600442  0.12046576     0.35900
N215        N  0.23246522  0.13579590  0.04874312    -0.38900
N216        N  0.18169386  0.45979872  0.12955518    -0.38900
N217        N  0.29785089  0.05631073  0.04119377    -0.38300
N218        N  0.11929679  0.04226302  0.14338925    -0.38300
C219        C  0.33279465  0.47431022  0.19179610    -0.05000
C220        C  0.30252581  0.47678120  0.21123424    -0.02100
C221        C  0.30900526  0.48661013  0.24230595     0.02900
C222        C  0.34566584  0.49468730  0.25483372    -0.05000
C223        C  0.37575245  0.49376314  0.23552798    -0.02100
C224        C  0.36966965  0.48340173  0.20438940     0.02900
C225        C  0.26400270  0.47049776  0.19946133     0.37500
C226        C  0.41325558  0.00280067  0.24792728     0.37500
C227        C  0.40206275  0.48214322  0.18585672     0.35900
C228        C  0.27695356  0.48941006  0.26098708     0.35900
N229        N  0.42810968  0.48159804  0.17130395    -0.38900
N230        N  0.25038108  0.49113487  0.27476777    -0.38900
N231        N  0.44317486  0.01015851  0.25772560    -0.38300
N232        N  0.23312046  0.46563627  0.19051381    -0.38300
C233        C  0.34717266  0.46376118  0.00223211    -0.05000
C234        C  0.35012809  0.99862352  0.99371605    -0.02100
C235        C  0.33823009  0.00957873  0.46376900     0.02900
C236        C  0.32478117  0.98564822  0.44159024    -0.05000
C237        C  0.32502690  0.45046771  0.44912585    -0.02100
C238        C  0.33602861  0.43948709  0.47931766     0.02900
C239        C  0.36793601  0.02292143  0.01519955     0.37500
C240        C  0.31495822  0.42540907  0.42540324     0.37500
C241        C  0.33640141  0.40315274  0.48614637     0.35900
C242        C  0.34191888  0.04527993  0.45535236     0.35900
N243        N  0.33694698  0.37395338  0.49073273    -0.38900
N244        N  0.34527279  0.07379360  0.44891897    -0.38900
N245        N  0.30723946  0.40547594  0.40641270    -0.38300
N246        N  0.38242239  0.04212349  0.03233544    -0.38300
C247        C  0.23522361  0.34354566  0.46503710    -0.05000
C248        C  0.23490805  0.37928769  0.46996530    -0.02100
C249        C  0.24397907  0.39287749  0.99961246     0.02900
C250        C  0.25429507  0.37086620  0.02452177    -0.05000
C251        C  0.25511595  0.33515012  0.01939895    -0.02100
C252        C  0.24527377  0.32157607  0.48996566     0.02900
C253        C  0.22555523  0.40221269  0.44446567     0.37500
C254        C  0.26577215  0.31208770  0.04449372     0.37500
C255        C  0.24417949  0.28473956  0.48541309     0.35900
C256        C  0.24377085  0.42965182  0.00436734     0.35900
N257        N  0.24307703  0.25543491  0.48159415    -0.38900
N258        N  0.24356910  0.45896226  0.00822774    -0.38900
N259        N  0.27383869  0.29293780  0.06409716    -0.38300
N260        N  0.21886108  0.42109916  0.42437174    -0.38300
C261        C  0.13582514  0.25086720  0.49024457    -0.05000
C262        C  0.13253281  0.21622616  0.49936143    -0.02100
C263        C  0.14355603  0.20605495  0.02972011     0.02900
C264        C  0.15737462  0.23043238  0.05137403    -0.05000
C265        C  0.15752063  0.26537695  0.04319616    -0.02100
C266        C  0.14656495  0.27567895  0.01282400     0.02900
C267        C  0.11632054  0.19114905  0.47782294     0.37500
C268        C  0.16895083  0.29080509  0.06621136     0.37500
C269        C  0.14649636  0.31184266  0.00529760     0.35900
C270        C  0.13930595  0.17065963  0.03894360     0.35900
N271        N  0.14615516  0.34090280  0.00004519    -0.38900
N272        N  0.13559695  0.14240133  0.04607225    -0.38900
N273        N  0.17794622  0.31104190  0.08460467    -0.38300
N274        N  0.10326533  0.17117280  0.46070586    -0.38300
C275        C  0.14542254  0.21410147  0.23939169    -0.05000
C276        C  0.18133125  0.22521001  0.25108477    -0.02100
C277        C  0.18760696  0.23491572  0.28209501     0.02900
C278        C  0.15863680  0.23135226  0.30269554    -0.05000
C279        C  0.12476011  0.21442908  0.29173654    -0.02100
C280        C  0.11775115  0.20715184  0.26009424     0.02900
C281        C  0.21309534  0.22440200  0.23186106     0.37500
C282        C  0.09714727  0.20315500  0.31260507     0.37500
C283        C  0.08195595  0.19254778  0.24893175     0.35900
C284        C  0.22467086  0.24749526  0.29233419     0.35900
N285        N  0.05350602  0.18071435  0.24004990    -0.38900
N286        N  0.25445149  0.25745050  0.29988184    -0.38900
N287        N  0.07497575  0.19394039  0.32899172    -0.38300
N288        N  0.23928222  0.22352750  0.21754484    -0.38300
C289        C  0.18513709  0.38577528  0.34873106    -0.05000
C290        C  0.17513838  0.41812519  0.36046014    -0.02100
C291        C  0.19828047  0.44696269  0.35618199     0.02900
C292        C  0.23175410  0.44341717  0.34052463    -0.05000
C293        C  0.23766539  0.41291010  0.32427291    -0.02100
C294        C  0.21317340  0.38492767  0.32696057     0.02900
C295        C  0.14179202  0.42174801  0.37761656     0.37500
C296        C  0.26932316  0.41005212  0.30506538     0.37500
C297        C  0.21692310  0.35554592  0.30704280     0.35900
C298        C  0.18903031  0.47943922  0.36999336     0.35900
N299        N  0.21963023  0.33241010  0.29076313    -0.38900
N300        N  0.18144648  0.50533031  0.38096966    -0.38900
N301        N  0.29463996  0.40764385  0.28983990    -0.38300
N302        N  0.11511755  0.42469736  0.39122738    -0.38300
C303        C  0.25350246  0.19436758  0.40127725    -0.05000
C304        C  0.28577350  0.19651669  0.38389005    -0.02100
C305        C  0.30816219  0.16695335  0.37888566     0.02900
C306        C  0.29828385  0.13468923  0.39078601    -0.05000
C307        C  0.26998164  0.13443364  0.41269656    -0.02100
C308        C  0.24779943  0.16391727  0.41753257     0.02900
C309        C  0.29545063  0.22881939  0.37016351     0.37500
C310        C  0.26232546  0.10383505  0.43014520     0.37500
C311        C  0.21913314  0.16306461  0.43972006     0.35900
C312        C  0.34128131  0.16999935  0.36147660     0.35900
N313        N  0.19660348  0.16240341  0.45766049    -0.38900
N314        N  0.36806362  0.17260866  0.34799216    -0.38900
N315        N  0.25559502  0.07966548  0.44412022    -0.38300
N316        N  0.30364833  0.25462961  0.35946975    -0.38300
C317        C  0.95648436  0.18431439  0.11610892    -0.05000
C318        C  0.98016075  0.16206387  0.10046638    -0.02100
C319        C  0.01963391  0.16253438  0.10704372     0.02900
C320        C  0.03596518  0.18537304  0.12935815    -0.05000
C321        C  0.01197388  0.20706488  0.14548303    -0.02100
C322        C  0.97260076  0.20666372  0.13872996     0.02900
C323        C  0.96411541  0.13956384  0.07659301     0.37500
C324        C  0.02737993  0.22904783  0.17002984     0.37500
C325        C  0.94865587  0.22874585  0.15590019     0.35900
C326        C  0.04327689  0.13991932  0.09013515     0.35900
N327        N  0.93009371  0.24653450  0.16986944    -0.38900
N328        N  0.06191555  0.12163620  0.07671255    -0.38900
N329        N  0.03959192  0.24658579  0.18959859    -0.38300
N330        N  0.95137542  0.12163923  0.05753003    -0.38300
C331        C  0.45343434  0.02619962  0.36754857    -0.05000
C332        C  0.46924080  0.04975863  0.38953263    -0.02100
C333        C  0.50881345  0.05141780  0.39607202     0.02900
C334        C  0.53342728  0.03000925  0.38044432    -0.05000
C335        C  0.51772992  0.00594638  0.35907066    -0.02100
C336        C  0.47817241  0.00357217  0.35309863     0.02900
C337        C  0.44481617  0.07136810  0.40667047     0.37500
C338        C  0.54232290  0.48420514  0.34218344     0.37500
C339        C  0.46335831  0.47775104  0.33168944     0.35900
C340        C  0.52404359  0.07409659  0.42011538     0.35900
N341        N  0.45165799  0.45680135  0.31494624    -0.38900
N342        N  0.53616998  0.09199817  0.43943214    -0.38900
N343        N  0.56149156  0.46678283  0.32841030    -0.38300
N344        N  0.42543415  0.08861163  0.42043348    -0.38300
C345        C  0.72787650  0.09758554  0.46939490    -0.05000
C346        C  0.76422961  0.08713578  0.48020795    -0.02100
C347        C  0.78058263  0.10022757  0.50822435     0.02900
C348        C  0.76032660  0.12341033  0.02648709    -0.05000
C349        C  0.72337263  0.13279933  0.01618479    -0.02100
C350        C  0.70764228  0.12080954  0.48753113     0.02900
C351        C  0.78425757  0.06166888  0.46323118     0.37500
C352        C  0.70169194  0.15551190  0.03462305     0.37500
C353        C  0.67055774  0.13314079  0.47653934     0.35900
C354        C  0.81860186  0.08928009  0.51801925     0.35900
N355        N  0.64092334  0.14302961  0.46805517    -0.38900
N356        N  0.84918427  0.08075819  0.52508122    -0.38900
N357        N  0.68428782  0.17350562  0.04937739    -0.38300
N358        N  0.80017218  0.04121041  0.44983335    -0.38300
C359        C  0.53425038  0.43410077  0.12744745    -0.05000
C360        C  0.51032746  0.41402583  0.14482976    -0.02100
C361        C  0.47100266  0.41308491  0.13709227     0.02900
C362        C  0.45504192  0.43183959  0.11154731    -0.05000
C363        C  0.47919653  0.45087079  0.09351524    -0.02100
C364        C  0.51832694  0.45261508  0.10180909     0.02900
C365        C  0.52596083  0.39528282  0.17155087     0.37500
C366        C  0.46413754  0.46714186  0.06528738     0.37500
C367        C  0.54220521  0.47282272  0.08323167     0.35900
C368        C  0.44690292  0.39359783  0.15614643     0.35900
N369        N  0.56063767  0.48917066  0.06805247    -0.38900
N370        N  0.42770596  0.37804339  0.17135771    -0.38900
N371        N  0.45205236  0.47968198  0.04261240    -0.38300
N372        N  0.53850405  0.38034754  0.19284312    -0.38300
C373        C  0.73498279  0.26972021  0.10491911    -0.05000
C374        C  0.71336267  0.26944512  0.13112450    -0.02100
C375        C  0.68855283  0.29707536  0.13669852     0.02900
C376        C  0.68370387  0.32429490  0.11521632    -0.05000
C377        C  0.69889089  0.31997236  0.08636113    -0.02100
C378        C  0.72721056  0.29516426  0.08235672     0.02900
C379        C  0.71930274  0.24263105  0.15403578     0.37500
C380        C  0.68194660  0.33820002  0.05997885     0.37500
C381        C  0.74952578  0.29740163  0.05586306     0.35900
C382        C  0.67016281  0.29822654  0.16539974     0.35900
N383        N  0.76772548  0.30035174  0.03499768    -0.38900
N384        N  0.65570268  0.29914819  0.18840143    -0.38900
N385        N  0.66680362  0.35113317  0.03862420    -0.38300
N386        N  0.72371704  0.22153183  0.17262445    -0.38300
C387        C  0.75620553  0.01905005  0.14593903    -0.05000
C388        C  0.75479128  0.04777425  0.16511462    -0.02100
C389        C  0.77710182  0.07682484  0.16012444     0.02900
C390        C  0.80245664  0.07730366  0.13590808    -0.05000
C391        C  0.80794128  0.04611783  0.12004092    -0.02100
C392        C  0.78440357  0.01748852  0.12453748     0.02900
C393        C  0.73058744  0.04713745  0.19059983     0.37500
C394        C  0.83770229  0.04307354  0.09907459     0.37500
C395        C  0.78817637  0.98695985  0.10605309     0.35900
C396        C  0.77195667  0.10634224  0.17966469     0.35900
N397        N  0.79126331  0.46266707  0.09123108    -0.38900
N398        N  0.76682246  0.12960675  0.19531121    -0.38900
N399        N  0.86185294  0.04012687  0.08274648    -0.38300
N400        N  0.71202425  0.04657860  0.21137271    -0.38300
C401        C  0.66181779  0.47656909  0.05072111    -0.05000
C402        C  0.67248740  0.45469885  0.02720360    -0.02100
C403        C  0.65987484  0.46127756  0.49644259     0.02900
C404        C  0.64198343  0.49302558  0.48802219    -0.05000
C405        C  0.63408995  0.01639299  0.01170297    -0.02100
C406        C  0.64345904  0.50796368  0.04275096     0.02900
C407        C  0.69858913  0.42668020  0.03421079     0.37500
C408        C  0.61659487  0.04943035  0.50474620     0.37500
C409        C  0.63602400  0.53285871  0.06642832     0.35900
C410        C  0.66464131  0.43437851  0.47399520     0.35900
N411        N  0.62994458  0.05275803  0.08514512    -0.38900
N412        N  0.66841915  0.41277165  0.45629058    -0.38900
N413        N  0.60266446  0.07585907  0.49955898    -0.38300
N414        N  0.72089777  0.40545758  0.03968156    -0.38300
C415        C  0.63258182  0.47770529  0.23794130    -0.05000
C416        C  0.63382787  0.45266164  0.26160305    -0.02100
C417        C  0.64436334  0.46193296  0.29219689     0.02900
C418        C  0.65368126  0.99624802  0.29971401    -0.05000
C419        C  0.64798165  0.02177305  0.27693028    -0.02100
C420        C  0.63716992  0.01260242  0.24623739     0.02900
C421        C  0.62571370  0.41695124  0.25491627     0.37500
C422        C  0.64991930  0.05762109  0.28538608     0.37500
C423        C  0.62873517  0.03930339  0.22356303     0.35900
C424        C  0.64505779  0.43588269  0.31608584     0.35900
N425        N  0.62195748  0.06064432  0.20554326    -0.38900
N426        N  0.64469854  0.41518603  0.33509163    -0.38900
N427        N  0.65036470  0.08640174  0.29163099    -0.38300
N428        N  0.61928034  0.38837901  0.25004959    -0.38300
C429        C  0.95528004  0.28728756  0.36374904    -0.05000
C430        C  0.98069927  0.27875572  0.34131198    -0.02100
C431        C  0.02001584  0.28008756  0.34859051     0.02900
C432        C  0.03416404  0.28677634  0.37897599    -0.05000
C433        C  0.00885657  0.29621701  0.40120015    -0.02100
C434        C  0.96961687  0.29756764  0.39329180     0.02900
C435        C  0.96649699  0.26953493  0.31045236     0.37500
C436        C  0.02323022  0.30493184  0.43211807     0.37500
C437        C  0.94388480  0.30921273  0.41558853     0.35900
C438        C  0.04588355  0.27734063  0.32439468     0.35900
N439        N  0.92312432  0.31857557  0.43317098    -0.38900
N440        N  0.06640685  0.27648056  0.30490441    -0.38900
N441        N  0.03463246  0.31194313  0.45680146    -0.38300
N442        N  0.95537255  0.26201688  0.28581957    -0.38300
C443        C  0.75210634  0.34214693  0.27736972    -0.05000
C444        C  0.73868661  0.37601428  0.27882165    -0.02100
C445        C  0.73019291  0.39480063  0.25151884     0.02900
C446        C  0.73232474  0.37908237  0.22248188    -0.05000
C447        C  0.74587532  0.34526957  0.22108502    -0.02100
C448        C  0.75390101  0.32635413  0.24834184     0.02900
C449        C  0.73283763  0.39109398  0.30840882     0.37500
C450        C  0.75398141  0.33089364  0.19173199     0.37500
C451        C  0.76154848  0.28992991  0.24674112     0.35900
C452        C  0.72348176  0.43134491  0.25302933     0.35900
N453        N  0.76635018  0.26064508  0.24557905    -0.38900
N454        N  0.71972469  0.46075592  0.25403059    -0.38900
N455        N  0.76181228  0.32045930  0.16818702    -0.38300
N456        N  0.72716857  0.40224098  0.33222738    -0.38300
C457        C  0.83744426  0.22542654  0.19522251    -0.05000
C458        C  0.84338883  0.26037034  0.20221947    -0.02100
C459        C  0.85185980  0.27072663  0.23280038     0.02900
C460        C  0.85491112  0.24597857  0.25669165    -0.05000
C461        C  0.85436455  0.21079403  0.24885758    -0.02100
C462        C  0.84560843  0.20058562  0.21817694     0.02900
C463        C  0.84228264  0.28571986  0.17772596     0.37500
C464        C  0.86519300  0.18515296  0.27195786     0.37500
C465        C  0.84887081  0.16485986  0.20971388     0.35900
C466        C  0.85641780  0.30699154  0.23920839     0.35900
N467        N  0.85263006  0.13644644  0.20302538    -0.38900
N468        N  0.86015058  0.33598561  0.24385133    -0.38900
N469        N  0.87398130  0.16471269  0.29036233    -0.38300
N470        N  0.84235158  0.30582795  0.15819561    -0.38300
C471        C  0.84918363  0.22401383  0.00821159    -0.05000
C472        C  0.81240490  0.23177195  0.49593538    -0.02100
C473        C  0.80622715  0.24371813  0.46559189     0.02900
C474        C  0.83652742  0.24558175  0.44612786    -0.05000
C475        C  0.87321224  0.23489715  0.45810297    -0.02100
C476        C  0.87947843  0.22511112  0.98923278     0.02900
C477        C  0.78030058  0.22552347  0.01402264     0.37500
C478        C  0.90485097  0.23275745  0.43881324     0.37500
C479        C  0.91720195  0.21651701  0.00191061     0.35900
C480        C  0.76803128  0.25277154  0.45467200     0.35900
N481        N  0.94718016  0.20966265  0.01216742    -0.38900
N482        N  0.73736974  0.26012495  0.44669956    -0.38900
N483        N  0.93026463  0.23001249  0.42372430    -0.38300
N484        N  0.75440324  0.22046030  0.02802352    -0.38300
C485        C  0.76092872  0.45569963  0.39284051    -0.05000
C486        C  0.77993128  0.45347762  0.36547620    -0.02100
C487        C  0.80376537  0.42516634  0.36031946     0.02900
C488        C  0.80781159  0.39822526  0.38227643    -0.05000
C489        C  0.79438286  0.40409193  0.41182097    -0.02100
C490        C  0.77139469  0.43300473  0.41708739     0.02900
C491        C  0.77324548  0.47925172  0.34168381     0.37500
C492        C  0.80397830  0.38036599  0.43679850     0.37500
C493        C  0.75992831  0.44037830  0.44765634     0.35900
C494        C  0.82119155  0.42282386  0.33121718     0.35900
N495        N  0.75192310  0.44685861  0.47229254    -0.38900
N496        N  0.83490392  0.42104631  0.30791945    -0.38900
N497        N  0.81171984  0.36144296  0.45672936    -0.38300
N498        N  0.76830640  0.49965723  0.32253236    -0.38300
C499        C  0.73385940  0.20181790  0.35161692    -0.05000
C500        C  0.70200889  0.20420833  0.36945986    -0.02100
C501        C  0.67932386  0.17495006  0.37426148     0.02900
C502        C  0.68810822  0.14281283  0.36127776    -0.05000
C503        C  0.71720728  0.14225015  0.33996732    -0.02100
C504        C  0.73880847  0.17168781  0.33482496     0.02900
C505        C  0.69195546  0.23683698  0.38247502     0.37500
C506        C  0.72714006  0.11142986  0.32364931     0.37500
C507        C  0.76508499  0.17157778  0.31074163     0.35900
C508        C  0.64667273  0.17830318  0.39221566     0.35900
N509        N  0.78516339  0.17156395  0.29095330    -0.38900
N510        N  0.62033120  0.18119841  0.40622923    -0.38900
N511        N  0.73604855  0.08730310  0.31047031    -0.38300
N512        N  0.68317373  0.26299634  0.39227930    -0.38300
O513        O  0.80507565  0.33732392  0.88588609    -0.81400
C514        C  0.85512396  0.25667257  0.78949164     0.97900
O515        O  0.86977808  0.28476358  0.79822233    -0.70600
O516        O  0.80942598  0.32205081  0.79895843    -0.74200
Al517      Al  0.85062727  0.31696502  0.82709724     1.49000
C518        C  0.77549484  0.32772661  0.80381001     0.93200
O519        O  0.75511793  0.26017437  0.85099032    -0.80400
O520        O  0.85222315  0.24621297  0.89412452    -0.73900
Al521      Al  0.78459036  0.29768907  0.86639743     1.90100
O522        O  0.79815075  0.22035398  0.85430886    -0.73000
O523        O  0.89802020  0.25753234  0.85048137    -0.72900
O524        O  0.83913569  0.23824165  0.80844385    -0.78500
O525        O  0.89504112  0.31368766  0.85387744    -0.76700
O526        O  0.82648497  0.28629391  0.84862903    -1.12900
O527        O  0.83582759  0.35736513  0.84875692    -0.72000
C528        C  0.81823216  0.36253390  0.87248300     0.98700
C529        C  0.76378760  0.22900771  0.85207380     0.95100
Al530      Al  0.84527954  0.24402712  0.85150244     1.55600
O531        O  0.76315960  0.32326278  0.83036325    -0.76700
C532        C  0.91390389  0.28613626  0.85604504     0.99200
C533        C  0.82941422  0.25614636  0.91314622     0.94100
O534        O  0.80039235  0.27381286  0.90424987    -0.82000
O535        O  0.69522748  0.44899894  0.59418583    -0.81400
C536        C  0.63149380  0.46722221  0.70490149     0.97900
O537        O  0.64772541  0.48536310  0.68586704    -0.70600
O538        O  0.69192668  0.50135497  0.64154704    -0.74200
Al539      Al  0.64431635  0.47794595  0.64291793     1.51400
C540        C  0.72605991  0.49249198  0.64632490     0.93200
O541        O  0.72453571  0.39779933  0.66923165    -0.80400
O542        O  0.65392708  0.36481909  0.64837216    -0.73900
Al543      Al  0.70638094  0.42418750  0.63259356     1.90100
O544        O  0.67689896  0.40146654  0.69896279    -0.73000
O545        O  0.59449987  0.40843873  0.64044376    -0.72900
O546        O  0.61656735  0.43920810  0.69613624    -0.78500
O547        O  0.59127276  0.46461877  0.64168053    -0.76700
O548        O  0.66302269  0.43594271  0.64788996    -1.12900
O549        O  0.64035202  0.47371245  0.60041365    -0.72000
C550        C  0.66633423  0.46568353  0.58348885     0.98700
C551        C  0.71079386  0.39426743  0.69535156     0.95100
Al552      Al  0.63746058  0.40590018  0.66891921     1.55600
O553        O  0.73451398  0.46141666  0.65002837    -0.76700
C554        C  0.57559736  0.43582880  0.63646771     0.99200
C555        C  0.67242605  0.35976599  0.62500730     0.94100
O556        O  0.68603093  0.38507711  0.61189792    -0.82000
O557        O  0.67961276  0.08256236  0.85878296    -0.81400
C558        C  0.63706205  0.00335812  0.95480966     0.97900
O559        O  0.61886577  0.03029062  0.94609821    -0.70600
O560        O  0.67507045  0.07079357  0.94667340    -0.74200
Al561      Al  0.63623007  0.06443963  0.91738032     1.49000
C562        C  0.70784886  0.08025904  0.94247807     0.93200
O563        O  0.73512488  0.01154906  0.89858551    -0.80400
O564        O  0.63856347  0.99603758  0.85080970    -0.73900
Al565      Al  0.70419088  0.04685020  0.88026501     1.90100
O566        O  0.69522229  0.47000352  0.88954429    -0.73000
O567        O  0.59298619  0.00327805  0.89429348    -0.72900
O568        O  0.65331909  0.48592722  0.93527497    -0.78500
O569        O  0.59258194  0.05937732  0.88959067    -0.76700
O570        O  0.66266896  0.03441976  0.89681212    -1.12900
O571        O  0.65194680  0.10657305  0.89543632    -0.72000
C572        C  0.67086479  0.10947087  0.87179182     0.98700
C573        C  0.72875572  0.48023424  0.89473093     0.95100
Al574      Al  0.64632100  0.99195164  0.89294907     1.55600
O575        O  0.72192296  0.07551547  0.91644110    -0.76700
C576        C  0.57522707  0.03104927  0.88801180     0.99200
C577        C  0.66219443  0.00543670  0.83244276     0.94100
O578        O  0.69225074  0.02110707  0.84190829    -0.82000
O579        O  0.79916316  0.20066645  0.65330705    -0.81400
C580        C  0.85480640  0.21489232  0.54102316     0.97900
O581        O  0.84038787  0.23412046  0.56033165    -0.70600
O582        O  0.79980116  0.25222375  0.60666895    -0.74200
Al583      Al  0.84701748  0.22768084  0.60271370     1.49000
C584        C  0.76564996  0.24378892  0.60194270     0.93200
O585        O  0.76622797  0.14762648  0.57887986    -0.80400
O586        O  0.83624371  0.11385345  0.60087106    -0.73900
Al587      Al  0.78553967  0.17556626  0.61507731     1.90100
O588        O  0.81382919  0.14917842  0.54926900    -0.73000
O589        O  0.89634969  0.15802152  0.60616882    -0.72900
O590        O  0.87162453  0.18724192  0.54944767    -0.78500
O591        O  0.89936856  0.21391505  0.60111539    -0.76700
O592        O  0.82805030  0.18586770  0.59881718    -1.12900
O593        O  0.85446045  0.22321582  0.64480824    -0.72000
C594        C  0.82982624  0.21529325  0.66283691     0.98700
C595        C  0.78054424  0.14115694  0.55323312     0.95100
Al596      Al  0.85291547  0.15454993  0.57846318     1.55600
O597        O  0.75738286  0.21291888  0.59712095    -0.76700
C598        C  0.91519878  0.18540484  0.60780830     0.99200
C599        C  0.81727044  0.11113024  0.62440347     0.94100
O600        O  0.80648452  0.13801136  0.63652431    -0.82000
O601        O  0.18843503  0.32548737  0.85553702    -0.81400
C602        C  0.13398197  0.25961219  0.95685904     0.97900
O603        O  0.12042890  0.28802850  0.94675310    -0.70600
O604        O  0.17866119  0.32551623  0.94206540    -0.74200
Al605      Al  0.13893945  0.31660636  0.91421002     1.49000
C606        C  0.21293168  0.32903965  0.93833647     0.93200
O607        O  0.23322599  0.25316921  0.90231816    -0.80400
O608        O  0.13742170  0.24077995  0.85285065    -0.73900
Al609      Al  0.20691736  0.28916208  0.88042743     1.90100
O610        O  0.18954801  0.21473024  0.89530004    -0.73000
O611        O  0.09048447  0.25615831  0.89518094    -0.72900
O612        O  0.14779456  0.23850539  0.93876951    -0.78500
O613        O  0.09482859  0.31143202  0.88774984    -0.76700
O614        O  0.16320237  0.28242048  0.89671412    -1.12900
O615        O  0.15473613  0.35280504  0.88732678    -0.72000
C616        C  0.17396625  0.35294750  0.86391519     0.98700
C617        C  0.22399820  0.22223884  0.90017324     0.95100
Al618      Al  0.14289602  0.24094685  0.89579569     1.55600
O619        O  0.22707412  0.31950384  0.91362935    -0.76700
C620        C  0.07535545  0.28462749  0.88740321     0.99200
C621        C  0.16365612  0.24477919  0.83514669     0.94100
O622        O  0.19378771  0.26004621  0.84489044    -0.82000
O623        O  0.29526969  0.44887569  0.64858204    -0.81400
C624        C  0.35047161  0.45434879  0.53551196     0.97900
O625        O  0.33786861  0.47551387  0.55426746    -0.70600
O626        O  0.29907084  0.49972386  0.59953527    -0.74200
Al627      Al  0.34424219  0.47263632  0.59706999     1.49000
C628        C  0.26472360  0.49318844  0.59412843     0.93200
O629        O  0.25898547  0.39902718  0.57426170    -0.80400
O630        O  0.33819035  0.36146881  0.60786511    -0.73900
Al631      Al  0.27947870  0.42429260  0.61031241     1.90100
O632        O  0.31020690  0.38368278  0.55213663    -0.73000
O633        O  0.39480843  0.40468590  0.60427197    -0.72900
O634        O  0.36440367  0.42564867  0.54486096    -0.78500
O635        O  0.39653571  0.45937321  0.59564122    -0.76700
O636        O  0.32422407  0.43074427  0.59566355    -1.12900
O637        O  0.35051902  0.47139892  0.63999577    -0.72000
C638        C  0.32577805  0.46398640  0.65841718     0.98700
C639        C  0.27508664  0.38512973  0.55222301     0.95100
Al640      Al  0.34992686  0.39681615  0.57896153     1.55600
O641        O  0.25492922  0.46269355  0.59116134    -0.76700
C642        C  0.41331888  0.43193363  0.60367370     0.99200
C643        C  0.31384472  0.35939573  0.62759398     0.94100
O644        O  0.29267348  0.38439576  0.63176813    -0.82000
O645        O  0.19552614  0.20518540  0.59312414    -0.81400
C646        C  0.13840737  0.20885533  0.70570560     0.97900
O647        O  0.15183667  0.23018080  0.68769596    -0.70600
O648        O  0.19322303  0.25207305  0.64378072    -0.74200
Al649      Al  0.14604715  0.22780518  0.64466608     1.49000
C650        C  0.22716695  0.24291253  0.64910468     0.93200
O651        O  0.22683253  0.14547023  0.66341076    -0.80400
O652        O  0.15657085  0.11451813  0.63858472    -0.73900
Al653      Al  0.20800589  0.17658958  0.62945373     1.90100
O654        O  0.17871232  0.14460308  0.69245440    -0.73000
O655        O  0.09677317  0.15874373  0.63638591    -0.72900
O656        O  0.12116483  0.18256917  0.69500664    -0.78500
O657        O  0.09373808  0.21403968  0.64437886    -0.76700
O658        O  0.16499100  0.18562490  0.64575023    -1.12900
O659        O  0.13992203  0.22768990  0.60194256    -0.72000
C660        C  0.16494019  0.22040024  0.58386403     0.98700
C661        C  0.21219260  0.13720576  0.68839020     0.95100
Al662      Al  0.13996080  0.15274157  0.66375380     1.55600
O663        O  0.23537644  0.21162159  0.65079845    -0.76700
C664        C  0.07769266  0.18611660  0.63657011     0.99200
C665        C  0.17584894  0.11362626  0.61515939     0.94100
O666        O  0.18757396  0.14122099  0.60511696    -0.82000
O667        O  0.29427743  0.07477508  0.88375134    -0.81400
C668        C  0.35160404  0.00253344  0.78837628     0.97900
O669        O  0.36820745  0.02978403  0.79820769    -0.70600
O670        O  0.31361654  0.07157671  0.80018434    -0.74200
Al671      Al  0.35042826  0.06091097  0.82991254     1.49000
C672        C  0.27901839  0.07637226  0.80102044     0.93200
O673        O  0.25337105  0.00113426  0.83891759    -0.80400
O674        O  0.34618544  0.98877280  0.89241501    -0.73900
Al675      Al  0.27838910  0.03758503  0.86007593     1.90100
O676        O  0.29524029  0.46185018  0.85069959    -0.73000
O677        O  0.39509176  0.99861519  0.85055442    -0.72900
O678        O  0.33786899  0.48207762  0.80697399    -0.78500
O679        O  0.39293298  0.05359942  0.85834803    -0.76700
O680        O  0.32332525  0.02864408  0.84676225    -1.12900
O681        O  0.33439483  0.09934435  0.85574839    -0.72000
C682        C  0.31109475  0.10124448  0.87662609     0.98700
C683        C  0.26161247  0.47019765  0.84309311     0.95100
Al684      Al  0.34217109  0.98630276  0.84979565     1.55600
O685        O  0.26176455  0.06649487  0.82422447    -0.76700
C686        C  0.41164290  0.02603754  0.85885141     0.99200
C687        C  0.31951543  0.99600619  0.90899701     0.94100
O688        O  0.28922368  0.01075601  0.89805744    -0.82000
C689        C  0.23224180  0.11836360  0.71444236    -0.05000
C690        C  0.21186739  0.09380599  0.73084946    -0.02100
C691        C  0.22543569  0.08212496  0.76021830     0.02900
C692        C  0.26041761  0.09350454  0.77318717    -0.05000
C693        C  0.28098509  0.11790247  0.75658218    -0.02100
C694        C  0.26732727  0.12958308  0.72717099     0.02900
C695        C  0.17646709  0.08024958  0.71757046     0.37500
C696        C  0.31564706  0.13254110  0.77021293     0.37500
C697        C  0.28890209  0.15395146  0.71046730     0.35900
C698        C  0.20306980  0.05849004  0.77698565     0.35900
N699        N  0.30619426  0.17322386  0.69703321    -0.38900
N700        N  0.18490514  0.03986873  0.79034089    -0.38900
N701        N  0.34326908  0.14439061  0.78085321    -0.38300
N702        N  0.14806231  0.06951349  0.70739148    -0.38300
C703        C  0.25766096  0.26914677  0.65142630    -0.05000
C704        C  0.28945296  0.26601874  0.63362461    -0.02100
C705        C  0.31335516  0.29443307  0.62991789     0.02900
C706        C  0.30491429  0.32631976  0.64326934    -0.05000
C707        C  0.27848768  0.32671601  0.66629816    -0.02100
C708        C  0.25397600  0.29880191  0.66945883     0.02900
C709        C  0.29562488  0.23482207  0.61658332     0.37500
C710        C  0.27574047  0.35627973  0.68621537     0.37500
C711        C  0.22443690  0.30108018  0.69076948     0.35900
C712        C  0.34516342  0.29114040  0.61096550     0.35900
N713        N  0.20097332  0.30318110  0.70784212    -0.38900
N714        N  0.37056369  0.28837496  0.59586928    -0.38900
N715        N  0.27368846  0.37981474  0.70214532    -0.38300
N716        N  0.30048983  0.21006989  0.60278471    -0.38300
C717        C  0.19019451  0.08057691  0.60189597    -0.05000
C718        C  0.17999542  0.04826142  0.61345554    -0.02100
C719        C  0.20239782  0.01880870  0.60857350     0.02900
C720        C  0.23591968  0.02148038  0.59285787    -0.05000
C721        C  0.24278123  0.05232790  0.57749320    -0.02100
C722        C  0.21950315  0.08131094  0.58104696     0.02900
C723        C  0.14634819  0.04500407  0.63020930     0.37500
C724        C  0.27361796  0.05426974  0.55744572     0.37500
C725        C  0.22664096  0.11175216  0.56317116     0.35900
C726        C  0.19115980  0.48600298  0.62049354     0.35900
N727        N  0.23252851  0.13581915  0.54876232    -0.38900
N728        N  0.18169182  0.45979832  0.62959051    -0.38900
N729        N  0.29790737  0.05632939  0.54120601    -0.38300
N730        N  0.11930871  0.04226200  0.64335003    -0.38300
C731        C  0.33276616  0.47431266  0.69180721    -0.05000
C732        C  0.30249889  0.47676702  0.71124929    -0.02100
C733        C  0.30897347  0.48662177  0.74231513     0.02900
C734        C  0.34563093  0.49471430  0.75484022    -0.05000
C735        C  0.37571902  0.49378331  0.73553672    -0.02100
C736        C  0.36963795  0.48341883  0.70439869     0.02900
C737        C  0.26398268  0.47042380  0.69949085     0.37500
C738        C  0.41329789  0.00276125  0.74791889     0.37500
C739        C  0.40203135  0.48216670  0.68586620     0.35900
C740        C  0.27692037  0.48942861  0.76099412     0.35900
N741        N  0.42807825  0.48162609  0.67131324    -0.38900
N742        N  0.25034744  0.49115961  0.77477377    -0.38900
N743        N  0.44321786  0.01012080  0.75771423    -0.38300
N744        N  0.23310624  0.46550873  0.69055733    -0.38300
C745        C  0.34716551  0.46377650  0.50223875    -0.05000
C746        C  0.35013639  0.99861435  0.49370946    -0.02100
C747        C  0.33824246  0.00958015  0.96376814     0.02900
C748        C  0.32480028  0.98564530  0.94159023    -0.05000
C749        C  0.32500544  0.45046610  0.94912347    -0.02100
C750        C  0.33602102  0.43947766  0.97931043     0.02900
C751        C  0.36796159  0.02290627  0.51518964     0.37500
C752        C  0.31491286  0.42541457  0.92540045     0.37500
C753        C  0.33639223  0.40314217  0.98613442     0.35900
C754        C  0.34194912  0.04527679  0.95534330     0.35900
N755        N  0.33693651  0.37394247  0.99071869    -0.38900
N756        N  0.34531845  0.07378674  0.94890348    -0.38900
N757        N  0.30717286  0.40548716  0.90640972    -0.38300
N758        N  0.38246265  0.04210349  0.53232211    -0.38300
C759        C  0.23523192  0.34353805  0.96504051    -0.05000
C760        C  0.23491398  0.37928036  0.96996937    -0.02100
C761        C  0.24396532  0.39288492  0.49960987     0.02900
C762        C  0.25428452  0.37087436  0.52451931    -0.05000
C763        C  0.25511299  0.33515864  0.51939442    -0.02100
C764        C  0.24527533  0.32156763  0.98997044     0.02900
C765        C  0.22553604  0.40220572  0.94447447     0.37500
C766        C  0.26577470  0.31209548  0.54448691     0.37500
C767        C  0.24416227  0.28473093  0.98542182     0.35900
C768        C  0.24374037  0.42965860  0.50436696     0.35900
N769        N  0.24304143  0.25542619  0.98160624    -0.38900
N770        N  0.24352135  0.45896861  0.50822887    -0.38900
N771        N  0.27384388  0.29294193  0.56408664    -0.38300
N772        N  0.21881563  0.42109231  0.92438490    -0.38300
C773        C  0.13585743  0.25085712  0.99024263    -0.05000
C774        C  0.13257844  0.21621328  0.99935635    -0.02100
C775        C  0.14351887  0.20606689  0.52972345     0.02900
C776        C  0.15736038  0.23044113  0.55137179    -0.05000
C777        C  0.15751077  0.26538542  0.54319312    -0.02100
C778        C  0.14654721  0.27568796  0.51282261     0.02900
C779        C  0.11638962  0.19113039  0.97781237     0.37500
C780        C  0.16894736  0.29081318  0.56620668     0.37500
C781        C  0.14648284  0.31185115  0.50529472     0.35900
C782        C  0.13925257  0.17067526  0.53895222     0.35900
N783        N  0.14614447  0.34091103  0.50004124    -0.38900
N784        N  0.13553055  0.14242064  0.54608715    -0.38900
N785        N  0.17794564  0.31105044  0.58459879    -0.38300
N786        N  0.10335507  0.17114903  0.96069050    -0.38300
C787        C  0.14542555  0.21409573  0.73938533    -0.05000
C788        C  0.18133492  0.22519752  0.75108136    -0.02100
C789        C  0.18760170  0.23492261  0.78208726     0.02900
C790        C  0.15862375  0.23137627  0.80268403    -0.05000
C791        C  0.12473845  0.21446749  0.79172153    -0.02100
C792        C  0.11774048  0.20717318  0.76008152     0.02900
C793        C  0.21310670  0.22436141  0.73186553     0.37500
C794        C  0.09710168  0.20322816  0.81258305     0.37500
C795        C  0.08194311  0.19257726  0.74891357     0.35900
C796        C  0.22466279  0.24751019  0.79232415     0.35900
N797        N  0.05349264  0.18074946  0.74002592    -0.38900
N798        N  0.25444060  0.25747402  0.79986893    -0.38900
N799        N  0.07491037  0.19403967  0.82896310    -0.38300
N800        N  0.23929720  0.22346263  0.71755395    -0.38300
C801        C  0.18513338  0.38578226  0.84872879    -0.05000
C802        C  0.17512499  0.41813053  0.86045521    -0.02100
C803        C  0.19826354  0.44697145  0.85618125     0.02900
C804        C  0.23174063  0.44343121  0.84052769    -0.05000
C805        C  0.23766134  0.41292491  0.82427741    -0.02100
C806        C  0.21317305  0.38493948  0.82696123     0.02900
C807        C  0.14177100  0.42174823  0.87760286     0.37500
C808        C  0.26932816  0.41006880  0.80507910     0.37500
C809        C  0.21693007  0.35555944  0.80704279     0.35900
C810        C  0.18900764  0.47944519  0.86999487     0.35900
N811        N  0.21964344  0.33242554  0.79076201    -0.38900
N812        N  0.18142021  0.50533398  0.88097361    -0.38900
N813        N  0.29465352  0.40766171  0.78986254    -0.38300
N814        N  0.11508953  0.42469382  0.89120563    -0.38300
C815        C  0.25350723  0.19435172  0.90123460    -0.05000
C816        C  0.28577110  0.19650289  0.88383869    -0.02100
C817        C  0.30815872  0.16694027  0.87882509     0.02900
C818        C  0.29829721  0.13467672  0.89073717    -0.05000
C819        C  0.27000524  0.13442088  0.91265633    -0.02100
C820        C  0.24781314  0.16389937  0.91748991     0.02900
C821        C  0.29544655  0.22880931  0.87011849     0.37500
C822        C  0.26237519  0.10382812  0.93012214     0.37500
C823        C  0.21914906  0.16303948  0.93967854     0.35900
C824        C  0.34126064  0.16998701  0.86139556     0.35900
N825        N  0.19662113  0.16236979  0.95762008    -0.38900
N826        N  0.36802880  0.17259671  0.84789358    -0.38900
N827        N  0.25566655  0.07966411  0.94411281    -0.38300
N828        N  0.30364568  0.25462304  0.85943206    -0.38300
C829        C  0.95647519  0.18433454  0.61609671    -0.05000
C830        C  0.98014821  0.16206842  0.60046625    -0.02100
C831        C  0.01962224  0.16252894  0.60704807     0.02900
C832        C  0.03596075  0.18537553  0.62935329    -0.05000
C833        C  0.01197211  0.20708304  0.64546623    -0.02100
C834        C  0.97259829  0.20669076  0.63870942     0.02900
C835        C  0.96409887  0.13955991  0.57660129     0.37500
C836        C  0.02738034  0.22907101  0.67000821     0.37500
C837        C  0.94865859  0.22878797  0.65586983     0.35900
C838        C  0.04325779  0.13989016  0.59015643     0.35900
N839        N  0.93009950  0.24658812  0.66983079    -0.38900
N840        N  0.06188937  0.12158645  0.57674822    -0.38900
N841        N  0.03959350  0.24661226  0.68957410    -0.38300
N842        N  0.95135565  0.12162827  0.55754508    -0.38300
C843        C  0.45345999  0.02617853  0.86754816    -0.05000
C844        C  0.46926116  0.04972781  0.88954271    -0.02100
C845        C  0.50883411  0.05139708  0.89607744     0.02900
C846        C  0.53345188  0.03000447  0.88043758    -0.05000
C847        C  0.51775981  0.00595422  0.85905018    -0.02100
C848        C  0.47820269  0.00356873  0.85308379     0.02900
C849        C  0.44483073  0.07131332  0.90669718     0.37500
C850        C  0.54229871  0.48415320  0.84223095     0.37500
C851        C  0.46333375  0.47771801  0.83173276     0.35900
C852        C  0.52406165  0.07407484  0.92012256     0.35900
N853        N  0.45162976  0.45675370  0.81500645    -0.38900
N854        N  0.53618622  0.09197789  0.93943892    -0.38900
N855        N  0.56146468  0.46670183  0.82848249    -0.38300
N856        N  0.42544507  0.08853702  0.92047504    -0.38300
C857        C  0.72790621  0.09757776  0.96938067    -0.05000
C858        C  0.76425390  0.08711766  0.98019896    -0.02100
C859        C  0.78060292  0.10020178  0.00821984     0.02900
C860        C  0.76030194  0.12342646  0.52649752    -0.05000
C861        C  0.72334012  0.13280062  0.51620341    -0.02100
C862        C  0.70767636  0.12080939  0.98751223     0.02900
C863        C  0.78427960  0.06164879  0.96322251     0.37500
C864        C  0.70165337  0.15550044  0.53464870     0.37500
C865        C  0.67059611  0.13314699  0.97651712     0.35900
C866        C  0.81861099  0.08923342  0.01802768     0.35900
N867        N  0.64096384  0.14304070  0.96803289    -0.38900
N868        N  0.84918412  0.08069327  0.02510126    -0.38900
N869        N  0.68424384  0.17348413  0.54940799    -0.38300
N870        N  0.80019305  0.04118985  0.94982426    -0.38300
C871        C  0.53423933  0.43412159  0.62746568    -0.05000
C872        C  0.51031641  0.41404195  0.64484472    -0.02100
C873        C  0.47099109  0.41309873  0.63710614     0.02900
C874        C  0.45502864  0.43185539  0.61156291    -0.05000
C875        C  0.47918222  0.45089761  0.59353802    -0.02100
C876        C  0.51831264  0.45264540  0.60183390     0.02900
C877        C  0.52594944  0.39530024  0.67156671     0.37500
C878        C  0.46412170  0.46718032  0.56531629     0.37500
C879        C  0.54218726  0.47287196  0.58326848     0.35900
C880        C  0.44689181  0.39361006  0.65615948     0.35900
N881        N  0.56061886  0.48923696  0.56810223    -0.38900
N882        N  0.42769523  0.37805548  0.67137100    -0.38900
N883        N  0.45203415  0.47973052  0.54264662    -0.38300
N884        N  0.53849205  0.38036743  0.69286059    -0.38300
C885        C  0.73494655  0.26971758  0.60493506    -0.05000
C886        C  0.71335265  0.26945235  0.63115597    -0.02100
C887        C  0.68853947  0.29707913  0.63673143     0.02900
C888        C  0.68366423  0.32428513  0.61523830    -0.05000
C889        C  0.69881594  0.31994627  0.58637217    -0.02100
C890        C  0.72713484  0.29513977  0.58235891     0.02900
C891        C  0.71931741  0.24265046  0.65407604     0.37500
C892        C  0.68183433  0.33815513  0.55999342     0.37500
C893        C  0.74940580  0.29735547  0.55583822     0.35900
C894        C  0.67016761  0.29823941  0.66544098     0.35900
N895        N  0.76756726  0.30029049  0.53494812    -0.38900
N896        N  0.65571949  0.29916780  0.68844798    -0.38900
N897        N  0.66666124  0.35107516  0.53864511    -0.38300
N898        N  0.72374877  0.22156097  0.67267201    -0.38300
C899        C  0.75619420  0.01906055  0.64592480    -0.05000
C900        C  0.75477197  0.04778750  0.66509553    -0.02100
C901        C  0.77707145  0.07684335  0.66009930     0.02900
C902        C  0.80243294  0.07732200  0.63588699    -0.05000
C903        C  0.80791623  0.04613722  0.62001662    -0.02100
C904        C  0.78438310  0.01750532  0.62451534     0.02900
C905        C  0.73056438  0.04715025  0.69057859     0.37500
C906        C  0.83766830  0.04309687  0.59904151     0.37500
C907        C  0.78814746  0.98698184  0.60602210     0.35900
C908        C  0.77190020  0.10636752  0.67962567     0.35900
N909        N  0.79134357  0.46262320  0.59129640    -0.38900
N910        N  0.76674387  0.12963707  0.69526039    -0.38900
N911        N  0.86181044  0.04015239  0.58270489    -0.38300
N912        N  0.71199553  0.04658958  0.71134795    -0.38300
C913        C  0.66181330  0.47655918  0.55072679    -0.05000
C914        C  0.67244364  0.45467184  0.52720836    -0.02100
C915        C  0.65992061  0.46129626  0.99643572     0.02900
C916        C  0.64198350  0.49302435  0.98801373    -0.05000
C917        C  0.63407682  0.01638205  0.51170313    -0.02100
C918        C  0.64348880  0.50797013  0.54275906     0.02900
C919        C  0.69850599  0.42662310  0.53421227     0.37500
C920        C  0.61664459  0.04945582  0.00474311     0.37500
C921        C  0.63607977  0.53287081  0.56643840     0.35900
C922        C  0.66474065  0.43440796  0.97398803     0.35900
N923        N  0.62990752  0.05273846  0.58514625    -0.38900
N924        N  0.66856305  0.41281025  0.95628301    -0.38900
N925        N  0.60274257  0.07589609  0.99955399    -0.38300
N926        N  0.72078617  0.40537561  0.53968000    -0.38300
C927        C  0.63258939  0.47771670  0.73794475    -0.05000
C928        C  0.63383142  0.45267491  0.76160774    -0.02100
C929        C  0.64436544  0.46194861  0.79220047     0.02900
C930        C  0.65368764  0.99623150  0.79971073    -0.05000
C931        C  0.64797214  0.02175826  0.77692992    -0.02100
C932        C  0.63715890  0.01258864  0.74623652     0.02900
C933        C  0.62571608  0.41696397  0.75492365     0.37500
C934        C  0.64989414  0.05760558  0.78539043     0.37500
C935        C  0.62871105  0.03929003  0.72356523     0.35900
C936        C  0.64505211  0.43590122  0.81609187     0.35900
N937        N  0.62192186  0.06063142  0.70554816    -0.38900
N938        N  0.64468574  0.41520709  0.83509933    -0.38900
N939        N  0.65032706  0.08638481  0.79164100    -0.38300
N940        N  0.61928276  0.38839115  0.75005969    -0.38300
C941        C  0.95528832  0.28729700  0.86376270    -0.05000
C942        C  0.98071089  0.27881519  0.84131417    -0.02100
C943        C  0.02002650  0.28014020  0.84859786     0.02900
C944        C  0.03417043  0.28677543  0.87899421    -0.05000
C945        C  0.00885939  0.29616918  0.90123085    -0.02100
C946        C  0.96961960  0.29752160  0.89332263     0.02900
C947        C  0.96651293  0.26964911  0.81043990     0.37500
C948        C  0.02322937  0.30484110  0.93215976     0.37500
C949        C  0.94388145  0.30911632  0.91563435     0.35900
C950        C  0.04589911  0.27743225  0.82440198     0.35900
N951        N  0.92311520  0.31844077  0.93322748    -0.38900
N952        N  0.06642972  0.27659941  0.80491596    -0.38900
N953        N  0.03462716  0.31182034  0.95685191    -0.38300
N954        N  0.95539316  0.26217488  0.78579490    -0.38300
C955        C  0.75211581  0.34213782  0.77736990    -0.05000
C956        C  0.73868067  0.37599958  0.77882505    -0.02100
C957        C  0.73018618  0.39478890  0.75152445     0.02900
C958        C  0.73232163  0.37907562  0.72248589    -0.05000
C959        C  0.74588739  0.34526783  0.72108487    -0.02100
C960        C  0.75392281  0.32635141  0.74834006     0.02900
C961        C  0.73281806  0.39107052  0.80841335     0.37500
C962        C  0.75400056  0.33089922  0.69173019     0.37500
C963        C  0.76159087  0.28993112  0.74673533     0.35900
C964        C  0.72347835  0.43133325  0.75303884     0.35900
N965        N  0.76640739  0.26064854  0.74556964    -0.38900
N966        N  0.71972676  0.46074467  0.75404264    -0.38900
N967        N  0.76183663  0.32046976  0.66818472    -0.38300
N968        N  0.72713905  0.40220863  0.83223312    -0.38300
C969        C  0.83745238  0.22545373  0.69522620    -0.05000
C970        C  0.84342826  0.26039492  0.70222201    -0.02100
C971        C  0.85191653  0.27074752  0.73280222     0.02900
C972        C  0.85494819  0.24599901  0.75669321    -0.05000
C973        C  0.85437778  0.21081533  0.74885903    -0.02100
C974        C  0.84560100  0.20060981  0.71818094     0.02900
C975        C  0.84232933  0.28574540  0.67772946     0.37500
C976        C  0.86520674  0.18517158  0.77195682     0.37500
C977        C  0.84882218  0.16487966  0.70972159     0.35900
C978        C  0.85651875  0.30700817  0.73921051     0.35900
N979        N  0.85254814  0.13646073  0.70303857    -0.38900
N980        N  0.86029066  0.33599776  0.74385626    -0.38900
N981        N  0.87399818  0.16473139  0.79036045    -0.38300
N982        N  0.84240255  0.30585483  0.65820043    -0.38300
C983        C  0.84916869  0.22404490  0.50821325    -0.05000
C984        C  0.81242510  0.23178304  0.99594494    -0.02100
C985        C  0.80624939  0.24374299  0.96560531     0.02900
C986        C  0.83653914  0.24556210  0.94612679    -0.05000
C987        C  0.87321350  0.23482874  0.95808879    -0.02100
C988        C  0.87947356  0.22518094  0.48924706     0.02900
C989        C  0.78028144  0.22548554  0.51400747     0.37500
C990        C  0.90483819  0.23264431  0.93878713     0.37500
C991        C  0.91720223  0.21662688  0.50193831     0.35900
C992        C  0.76806529  0.25286698  0.95470819     0.35900
N993        N  0.94718410  0.20980347  0.51220626    -0.38900
N994        N  0.73741532  0.26028034  0.94675372    -0.38900
N995        N  0.93023826  0.22986797  0.92368728    -0.38300
N996        N  0.75438710  0.22040306  0.52800667    -0.38300
C997        C  0.76091402  0.45570422  0.89283413    -0.05000
C998        C  0.77989879  0.45346700  0.86546233    -0.02100
C999        C  0.80373605  0.42515678  0.86031108     0.02900
C1000       C  0.80779180  0.39822402  0.88227610    -0.05000
C1001       C  0.79436989  0.40410021  0.91182169    -0.02100
C1002       C  0.77139418  0.43302187  0.91708714     0.02900
C1003       C  0.77319494  0.47922545  0.84165847     0.37500
C1004       C  0.80395807  0.38037572  0.93680164     0.37500
C1005       C  0.75996210  0.44042161  0.94766119     0.35900
C1006       C  0.82115588  0.42280634  0.83120641     0.35900
N1007       N  0.75198798  0.44692553  0.97230079    -0.38900
N1008       N  0.83486394  0.42102227  0.80790719    -0.38900
N1009       N  0.81169081  0.36145397  0.95673529    -0.38300
N1010       N  0.76824253  0.49961656  0.82249604    -0.38300
C1011       C  0.73388138  0.20180663  0.85161332    -0.05000
C1012       C  0.70204049  0.20419389  0.86946732    -0.02100
C1013       C  0.67935243  0.17493759  0.87426568     0.02900
C1014       C  0.68812651  0.14280366  0.86127119    -0.05000
C1015       C  0.71721779  0.14224328  0.83995405    -0.02100
C1016       C  0.73882175  0.17168017  0.83481366     0.02900
C1017       C  0.69200199  0.23681703  0.88250127     0.37500
C1018       C  0.72713815  0.11142566  0.82362677     0.37500
C1019       C  0.76509235  0.17157324  0.81072596     0.35900
C1020       C  0.64670822  0.17829007  0.89222800     0.35900
N1021       N  0.78516635  0.17156244  0.79093453    -0.38900
N1022       N  0.62037192  0.18118605  0.90624754    -0.38900
N1023       N  0.73603589  0.08729992  0.81044121    -0.38300
N1024       N  0.68323049  0.26297176  0.89232088    -0.38300
O1025       O  0.80506566  0.83732159  0.38588367    -0.81400
C1026       C  0.85511320  0.75666918  0.28949166     0.97900
O1027       O  0.86976835  0.78476039  0.29822097    -0.70600
O1028       O  0.80941945  0.82205180  0.29895784    -0.74200
Al1029     Al  0.85062124  0.81696308  0.32709640     1.49000
C1030       C  0.77548790  0.82772665  0.30380864     0.93200
O1031       O  0.75511236  0.76017146  0.35098634    -0.80400
O1032       O  0.85221937  0.74621584  0.39412531    -0.73900
Al1033     Al  0.78458273  0.79768678  0.36639480     1.90100
O1034       O  0.79814525  0.72035152  0.35431277    -0.73000
O1035       O  0.89801432  0.75752906  0.35047867    -0.72900
O1036       O  0.83912713  0.73823809  0.30844514    -0.78500
O1037       O  0.89503667  0.81368396  0.35387552    -0.76700
O1038       O  0.82647847  0.78629232  0.34862789    -1.12900
O1039       O  0.83582372  0.85736293  0.34875787    -0.72000
C1040       C  0.81822526  0.86253137  0.37248252     0.98700
C1041       C  0.76378208  0.72900496  0.35207405     0.95100
Al1042     Al  0.84527353  0.74402554  0.35150315     1.55600
O1043       O  0.76315176  0.82326048  0.33036105    -0.76700
C1044       C  0.91389924  0.78613235  0.35604188     0.99200
C1045       C  0.82940935  0.75614988  0.41314608     0.94100
O1046       O  0.80038491  0.77381181  0.40424754    -0.82000
O1047       O  0.69522194  0.94900071  0.09418398    -0.81400
C1048       C  0.63148926  0.96722209  0.20490024     0.97900
O1049       O  0.64772088  0.98536314  0.18586584    -0.70600
O1050       O  0.69192101  0.00135563  0.14154552    -0.74200
Al1051     Al  0.64431112  0.97794689  0.14291648     1.51400
C1052       C  0.72605373  0.99249212  0.14632482     0.93200
O1053       O  0.72453042  0.89779953  0.16922938    -0.80400
O1054       O  0.65392153  0.86481953  0.14836749    -0.73900
Al1055     Al  0.70637558  0.92418845  0.13259158     1.90100
O1056       O  0.67689297  0.90146502  0.19895976    -0.73000
O1057       O  0.59449330  0.90844073  0.14044131    -0.72900
O1058       O  0.61656284  0.93920794  0.19613469    -0.78500
O1059       O  0.59126798  0.96462086  0.14167997    -0.76700
O1060       O  0.66301703  0.93594320  0.14788770    -1.12900
O1061       O  0.64034619  0.97371399  0.10041172    -0.72000
C1062       C  0.66632810  0.96568442  0.08348670     0.98700
C1063       C  0.71078823  0.89426698  0.19534908     0.95100
Al1064     Al  0.63745477  0.90590028  0.16891620     1.55600
O1065       O  0.73450733  0.96141684  0.15002824    -0.76700
C1066       C  0.57559153  0.93583155  0.13646705     0.99200
C1067       C  0.67242316  0.85976666  0.12500385     0.94100
O1068       O  0.68602705  0.88507821  0.11189452    -0.82000
O1069       O  0.67960617  0.58256212  0.35878705    -0.81400
C1070       C  0.63705963  0.50335882  0.45481375     0.97900
O1071       O  0.61886223  0.53029120  0.44610328    -0.70600
O1072       O  0.67506469  0.57079675  0.44667792    -0.74200
Al1073     Al  0.63622441  0.56444083  0.41738486     1.49000
C1074       C  0.70784304  0.58026215  0.44248238     0.93200
O1075       O  0.73511852  0.51154899  0.39859006    -0.80400
O1076       O  0.63855541  0.49603966  0.35081308    -0.73900
Al1077     Al  0.70418462  0.54685073  0.38026939     1.90100
O1078       O  0.69521597  0.97000258  0.38954311    -0.73000
O1079       O  0.59298022  0.50327859  0.39429897    -0.72900
O1080       O  0.65331752  0.98592611  0.43527597    -0.78500
O1081       O  0.59257646  0.55937774  0.38959576    -0.76700
O1082       O  0.66266298  0.53442070  0.39681651    -1.12900
O1083       O  0.65193985  0.60657415  0.39543959    -0.72000
C1084       C  0.67085744  0.60947103  0.37179471     0.98700
C1085       C  0.72874942  0.98023257  0.39473111     0.95100
Al1086     Al  0.64631466  0.49195257  0.39295261     1.55600
O1087       O  0.72191709  0.57551692  0.41644550    -0.76700
C1088       C  0.57522153  0.53104985  0.38801701     0.99200
C1089       C  0.66218689  0.50543831  0.33244633     0.94100
O1090       O  0.69224383  0.52110754  0.34191245    -0.82000
O1091       O  0.79915997  0.70066795  0.15330385    -0.81400
C1092       C  0.85481570  0.71488454  0.04102651     0.97900
O1093       O  0.84039763  0.73411562  0.06033331    -0.70600
O1094       O  0.79980840  0.75222445  0.10666959    -0.74200
Al1095     Al  0.84702347  0.72767774  0.10271596     1.49000
C1096       C  0.76565682  0.74379219  0.10193997     0.93200
O1097       O  0.76623114  0.64762884  0.07887619    -0.80400
O1098       O  0.83624599  0.61385364  0.10087876    -0.73900
Al1099     Al  0.78553875  0.67556842  0.11507411     1.90100
O1100       O  0.81383930  0.64917209  0.04927254    -0.73000
O1101       O  0.89635096  0.65801778  0.10617932    -0.72900
O1102       O  0.87163377  0.68723496  0.04945384    -0.78500
O1103       O  0.89937408  0.71390996  0.10112035    -0.76700
O1104       O  0.82805371  0.68586565  0.09881899    -1.12900
O1105       O  0.85446227  0.72321154  0.14481050    -0.72000
C1106       C  0.82982433  0.71529067  0.16283650     0.98700
C1107       C  0.78055226  0.64115466  0.05323243     0.95100
Al1108     Al  0.85292096  0.65454572  0.07846975     1.55600
O1109       O  0.75738856  0.71292319  0.09711392    -0.76700
C1110       C  0.91520198  0.68539975  0.10781682     0.99200
C1111       C  0.81726656  0.61113151  0.12440755     0.94100
O1112       O  0.80647377  0.63801242  0.13652435    -0.82000
O1113       O  0.18842493  0.82548565  0.35553106    -0.81400
C1114       C  0.13397879  0.75960925  0.45685775     0.97900
O1115       O  0.12042442  0.78802480  0.44675126    -0.70600
O1116       O  0.17865796  0.82551179  0.44206349    -0.74200
Al1117     Al  0.13893530  0.81660289  0.41420824     1.49000
C1118       C  0.21292728  0.82903984  0.43833166     0.93200
O1119       O  0.23322342  0.75317241  0.40231529    -0.80400
O1120       O  0.13741982  0.74077401  0.35284911    -0.73900
Al1121     Al  0.20691187  0.78916224  0.38042299     1.90100
O1122       O  0.18954803  0.71473005  0.39530077    -0.73000
O1123       O  0.09048182  0.75615404  0.39517741    -0.72900
O1124       O  0.14779244  0.73850322  0.43876828    -0.78500
O1125       O  0.09482446  0.81142838  0.38774789    -0.76700
O1126       O  0.16319835  0.78241813  0.39671140    -1.12900
O1127       O  0.15473182  0.85280219  0.38732566    -0.72000
C1128       C  0.17395901  0.85294594  0.36391235     0.98700
C1129       C  0.22399758  0.72224131  0.40017375     0.95100
Al1130     Al  0.14289410  0.74094364  0.39579420     1.55600
O1131       O  0.22706770  0.81950744  0.41362267    -0.76700
C1132       C  0.07535229  0.78462309  0.38739940     0.99200
C1133       C  0.16365370  0.74477436  0.33514497     0.94100
O1134       O  0.19378402  0.76004353  0.34488813    -0.82000
O1135       O  0.29526326  0.94887463  0.14858409    -0.81400
C1136       C  0.35046287  0.95434445  0.03551450     0.97900
O1137       O  0.33786076  0.97551122  0.05426909    -0.70600
O1138       O  0.29906504  0.99972556  0.09953677    -0.74200
Al1139     Al  0.34423497  0.97263678  0.09707153     1.49000
C1140       C  0.26471791  0.99319068  0.09413005     0.93200
O1141       O  0.25897866  0.89903273  0.07426108    -0.80400
O1142       O  0.33819063  0.86147302  0.10787874    -0.73900
Al1143     Al  0.27947047  0.92429425  0.11031361     1.90100
O1144       O  0.31020317  0.88367410  0.05214724    -0.73000
O1145       O  0.39480356  0.90469008  0.10427827    -0.72900
O1146       O  0.36439435  0.92564430  0.04486466    -0.78500
O1147       O  0.39652866  0.95937586  0.09564225    -0.76700
O1148       O  0.32421730  0.93074448  0.09566714    -1.12900
O1149       O  0.35051161  0.97140070  0.13999701    -0.72000
C1150       C  0.32577165  0.96398591  0.15841876     0.98700
C1151       C  0.27508267  0.88512764  0.05222770     0.95100
Al1152     Al  0.34992227  0.89681512  0.07896956     1.55600
O1153       O  0.25492309  0.96269615  0.09116368    -0.76700
C1154       C  0.41331285  0.93193793  0.10367754     0.99200
C1155       C  0.31383795  0.85939847  0.12760152     0.94100
O1156       O  0.29265906  0.88439512  0.13176738    -0.82000
O1157       O  0.19553540  0.70518153  0.09312593    -0.81400
C1158       C  0.13840682  0.70885351  0.20570359     0.97900
O1159       O  0.15183726  0.73017904  0.18769464    -0.70600
O1160       O  0.19322702  0.75207044  0.14378221    -0.74200
Al1161     Al  0.14605170  0.72780337  0.14466464     1.49000
C1162       C  0.22717053  0.74291034  0.14910800     0.93200
O1163       O  0.22683545  0.64546927  0.16341414    -0.80400
O1164       O  0.15657159  0.61451692  0.13858336    -0.73900
Al1165     Al  0.20801205  0.67658677  0.12945598     1.90100
O1166       O  0.17871125  0.64460126  0.19245351    -0.73000
O1167       O  0.09677686  0.65874322  0.13638275    -0.72900
O1168       O  0.12116464  0.68256769  0.19500382    -0.78500
O1169       O  0.09374279  0.71403913  0.14437448    -0.76700
O1170       O  0.16499494  0.68562275  0.14574958    -1.12900
O1171       O  0.13993109  0.72768821  0.10194143    -0.72000
C1172       C  0.16495087  0.72039770  0.08386464     0.98700
C1173       C  0.21219256  0.63720551  0.18839228     0.95100
Al1174     Al  0.13996221  0.65274023  0.16375182     1.55600
O1175       O  0.23538074  0.71161956  0.15080115    -0.76700
C1176       C  0.07769672  0.68611613  0.13656700     0.99200
C1177       C  0.17585172  0.61362306  0.11515938     0.94100
O1178       O  0.18758414  0.64121620  0.10511904    -0.82000
O1179       O  0.29427863  0.57478070  0.38375549    -0.81400
C1180       C  0.35160055  0.50254540  0.28837537     0.97900
O1181       O  0.36820351  0.52979571  0.29820746    -0.70600
O1182       O  0.31361125  0.57158621  0.30018728    -0.74200
Al1183     Al  0.35042462  0.56092023  0.32991348     1.49000
C1184       C  0.27901333  0.57638170  0.30102566     0.93200
O1185       O  0.25336768  0.50114261  0.33892011    -0.80400
O1186       O  0.34618495  0.48877824  0.39241266    -0.73900
Al1187     Al  0.27838774  0.53759220  0.36007914     1.90100
O1188       O  0.29523505  0.96184952  0.35069619    -0.73000
O1189       O  0.39508861  0.49862395  0.35055207    -0.72900
O1190       O  0.33786562  0.98207887  0.30697322    -0.78500
O1191       O  0.39292999  0.55360807  0.35834729    -0.76700
O1192       O  0.32332270  0.52865208  0.34676285    -1.12900
O1193       O  0.33439249  0.59935197  0.35575068    -0.72000
C1194       C  0.31109492  0.60125060  0.37663014     0.98700
C1195       C  0.26160691  0.97019699  0.34309025     0.95100
Al1196     Al  0.34216857  0.48631077  0.34979358     1.55600
O1197       O  0.26176110  0.56650365  0.32423015    -0.76700
C1198       C  0.41163963  0.52604615  0.35884964     0.99200
C1199       C  0.31951688  0.49601182  0.40899640     0.94100
O1200       O  0.28922438  0.51076166  0.39805887    -0.82000
C1201       C  0.23223989  0.61836697  0.21444678    -0.05000
C1202       C  0.21186459  0.59381026  0.23085423    -0.02100
C1203       C  0.22543069  0.58213242  0.26022444     0.02900
C1204       C  0.26041097  0.59351452  0.27319414    -0.05000
C1205       C  0.28097734  0.61791408  0.25659053    -0.02100
C1206       C  0.26732246  0.62959098  0.22717768     0.02900
C1207       C  0.17646490  0.58025281  0.21757503     0.37500
C1208       C  0.31563430  0.63255847  0.27022501     0.37500
C1209       C  0.28889677  0.65396083  0.21047512     0.35900
C1210       C  0.20306364  0.55849946  0.27699281     0.35900
N1211       N  0.30618864  0.67323470  0.19704239    -0.38900
N1212       N  0.18489762  0.53988001  0.29034886    -0.38900
N1213       N  0.34325195  0.64441276  0.28086876    -0.38300
N1214       N  0.14806004  0.56951662  0.20739619    -0.38300
C1215       C  0.25766274  0.76914571  0.15143338    -0.05000
C1216       C  0.28945758  0.76602013  0.13363478    -0.02100
C1217       C  0.31335669  0.79443671  0.12992927     0.02900
C1218       C  0.30490942  0.82632320  0.14327823    -0.05000
C1219       C  0.27847838  0.82671844  0.16630369    -0.02100
C1220       C  0.25397098  0.79880129  0.16946409     0.02900
C1221       C  0.29563547  0.73482373  0.11659491     0.37500
C1222       C  0.27571989  0.85628489  0.18621607     0.37500
C1223       C  0.22442803  0.80107732  0.19077154     0.35900
C1224       C  0.34516719  0.79114686  0.11097892     0.35900
N1225       N  0.20096126  0.80317629  0.20784146    -0.38900
N1226       N  0.37056902  0.78838428  0.09588400    -0.38900
N1227       N  0.27365758  0.87982199  0.20214222    -0.38300
N1228       N  0.30050547  0.71007180  0.10279728    -0.38300
C1229       C  0.19019050  0.58057182  0.10189471    -0.05000
C1230       C  0.17999357  0.54825775  0.11345902    -0.02100
C1231       C  0.20239506  0.51880446  0.10857711     0.02900
C1232       C  0.23591335  0.52147451  0.09285681    -0.05000
C1233       C  0.24276973  0.55231893  0.07748563    -0.02100
C1234       C  0.21949255  0.58130246  0.08103971     0.02900
C1235       C  0.14634981  0.54500226  0.13021730     0.37500
C1236       C  0.27359888  0.55425592  0.05743020     0.37500
C1237       C  0.22662344  0.61174049  0.06315755     0.35900
C1238       C  0.19115318  0.98600577  0.12049354     0.35900
N1239       N  0.23250531  0.63580496  0.04874358    -0.38900
N1240       N  0.18168438  0.95980140  0.12959055    -0.38900
N1241       N  0.29788171  0.55631060  0.04118360    -0.38300
N1242       N  0.11931278  0.54226116  0.14336141    -0.38300
C1243       C  0.33276093  0.97431090  0.19180869    -0.05000
C1244       C  0.30249421  0.97676473  0.21125128    -0.02100
C1245       C  0.30896913  0.98662272  0.24231607     0.02900
C1246       C  0.34562674  0.99471594  0.25484019    -0.05000
C1247       C  0.37571464  0.99378366  0.23553665    -0.02100
C1248       C  0.36963296  0.98341764  0.20439922     0.02900
C1249       C  0.26397830  0.97041673  0.19949465     0.37500
C1250       C  0.41329152  0.50279142  0.24791480     0.37500
C1251       C  0.40202617  0.98216444  0.18586650     0.35900
C1252       C  0.27691597  0.98943340  0.26099457     0.35900
N1253       N  0.42807316  0.98162336  0.17131374    -0.38900
N1254       N  0.25034261  0.99116800  0.27477340    -0.38900
N1255       N  0.44320884  0.51016241  0.25770789    -0.38300
N1256       N  0.23310223  0.96549722  0.19056245    -0.38300
C1257       C  0.34715732  0.96377118  0.00224093    -0.05000
C1258       C  0.35014314  0.49861521  0.99371263    -0.02100
C1259       C  0.33824597  0.50958597  0.46376703     0.02900
C1260       C  0.32480484  0.48565069  0.44158912    -0.05000
C1261       C  0.32500392  0.95046341  0.44912045    -0.02100
C1262       C  0.33601967  0.93947570  0.47930747     0.02900
C1263       C  0.36796453  0.52290700  0.01519497     0.37500
C1264       C  0.31491812  0.92541103  0.42539643     0.37500
C1265       C  0.33639375  0.90314018  0.48613137     0.35900
C1266       C  0.34194989  0.54528304  0.45534251     0.35900
N1267       N  0.33694013  0.87394043  0.49071557    -0.38900
N1268       N  0.34531722  0.57379328  0.44890290    -0.38900
N1269       N  0.30718405  0.90548316  0.40640483    -0.38300
N1270       N  0.38246123  0.54210437  0.03232972    -0.38300
C1271       C  0.23522907  0.84353877  0.46503457    -0.05000
C1272       C  0.23491347  0.87928119  0.46996220    -0.02100
C1273       C  0.24395916  0.89288435  0.99961547     0.02900
C1274       C  0.25428416  0.87087232  0.02452254    -0.05000
C1275       C  0.25512179  0.83515739  0.01939421    -0.02100
C1276       C  0.24527218  0.82156910  0.48996498     0.02900
C1277       C  0.22554297  0.90220595  0.44446565     0.37500
C1278       C  0.26578865  0.81209308  0.04448487     0.37500
C1279       C  0.24415786  0.78473222  0.48541736     0.35900
C1280       C  0.24372914  0.92965756  0.00437551     0.35900
N1281       N  0.24303584  0.75542743  0.48160246    -0.38900
N1282       N  0.24350699  0.95896711  0.00823978    -0.38900
N1283       N  0.27386234  0.79293941  0.06408369    -0.38300
N1284       N  0.21883054  0.92109285  0.42437511    -0.38300
C1285       C  0.13585431  0.75085413  0.49024175    -0.05000
C1286       C  0.13257967  0.71620984  0.49935578    -0.02100
C1287       C  0.14352481  0.70606588  0.02972587     0.02900
C1288       C  0.15737402  0.73043838  0.05137269    -0.05000
C1289       C  0.15753312  0.76538213  0.04319341    -0.02100
C1290       C  0.14656677  0.77568577  0.01282393     0.02900
C1291       C  0.11639758  0.69112453  0.47781102     0.37500
C1292       C  0.16898199  0.79080807  0.06620516     0.37500
C1293       C  0.14650706  0.81184887  0.00529610     0.35900
C1294       C  0.13925149  0.67067547  0.03895592     0.35900
N1295       N  0.14617222  0.84090892  0.00004357    -0.38900
N1296       N  0.13552408  0.64242210  0.04609244    -0.38900
N1297       N  0.17799080  0.81104400  0.08459551    -0.38300
N1298       N  0.10336899  0.67114113  0.46068832    -0.38300
C1299       C  0.14542440  0.71409274  0.23938350    -0.05000
C1300       C  0.18133303  0.72519608  0.25107968    -0.02100
C1301       C  0.18759904  0.73492158  0.28208535     0.02900
C1302       C  0.15862226  0.73137110  0.30268252    -0.05000
C1303       C  0.12473891  0.71445904  0.29172024    -0.02100
C1304       C  0.11774029  0.70716694  0.26007979     0.02900
C1305       C  0.21310520  0.72436109  0.23186444     0.37500
C1306       C  0.09710512  0.70321463  0.31258225     0.37500
C1307       C  0.08194335  0.69257045  0.24891145     0.35900
C1308       C  0.22465806  0.74751507  0.29232131     0.35900
N1309       N  0.05349321  0.68074252  0.24002302    -0.38900
N1310       N  0.25443380  0.75748406  0.29986571    -0.38900
N1311       N  0.07491599  0.69402229  0.32896269    -0.38300
N1312       N  0.23929646  0.72346342  0.21755378    -0.38300
C1313       C  0.18512619  0.88578220  0.34872813    -0.05000
C1314       C  0.17512288  0.91812945  0.36045998    -0.02100
C1315       C  0.19826132  0.94697015  0.35618491     0.02900
C1316       C  0.23173448  0.94343078  0.34052613    -0.05000
C1317       C  0.23765044  0.91292593  0.32427224    -0.02100
C1318       C  0.21316097  0.88494111  0.32695639     0.02900
C1319       C  0.14177636  0.92174595  0.37761699     0.37500
C1320       C  0.26931304  0.91007099  0.30506943     0.37500
C1321       C  0.21691018  0.85556408  0.30703307     0.35900
C1322       C  0.18901068  0.97944233  0.37000392     0.35900
N1323       N  0.21961647  0.83243291  0.29074807    -0.38900
N1324       N  0.18142762  0.00532975  0.38098726    -0.38900
N1325       N  0.29463500  0.90766482  0.28984913    -0.38300
N1326       N  0.11510171  0.92469042  0.39122827    -0.38300
C1327       C  0.25350840  0.69435611  0.40123849    -0.05000
C1328       C  0.28577348  0.69650779  0.38384411    -0.02100
C1329       C  0.30816262  0.66694575  0.37883281     0.02900
C1330       C  0.29829895  0.63468198  0.39074293    -0.05000
C1331       C  0.27000586  0.63442562  0.41266100    -0.02100
C1332       C  0.24781451  0.66390433  0.41749466     0.02900
C1333       C  0.29544755  0.72881355  0.37012189     0.37500
C1334       C  0.26237288  0.60383188  0.43012448     0.37500
C1335       C  0.21915118  0.66304489  0.43968388     0.35900
C1336       C  0.34126868  0.66999329  0.36140825     0.35900
N1337       N  0.19662447  0.66237486  0.45762633    -0.38900
N1338       N  0.36804027  0.67260380  0.34791071    -0.38900
N1339       N  0.25566184  0.57966675  0.44411278    -0.38300
N1340       N  0.30364483  0.75462667  0.35943332    -0.38300
C1341       C  0.95647798  0.68432770  0.11610553    -0.05000
C1342       C  0.98014881  0.66205477  0.10048014    -0.02100
C1343       C  0.01962349  0.66251945  0.10705635     0.02900
C1344       C  0.03596448  0.68537460  0.12935314    -0.05000
C1345       C  0.01197776  0.70708747  0.14546284    -0.02100
C1346       C  0.97260322  0.70669109  0.13871124     0.02900
C1347       C  0.96409636  0.63953239  0.07662735     0.37500
C1348       C  0.02738870  0.72908676  0.16999539     0.37500
C1349       C  0.94866459  0.72878969  0.15587143     0.35900
C1350       C  0.04325699  0.63987700  0.09016643     0.35900
N1351       N  0.93010563  0.74658988  0.16983251    -0.38900
N1352       N  0.06188721  0.62157094  0.07675924    -0.38900
N1353       N  0.03960428  0.74663740  0.18955334    -0.38300
N1354       N  0.95135084  0.62158858  0.05758175    -0.38300
C1355       C  0.45345618  0.52618643  0.36754672    -0.05000
C1356       C  0.46925695  0.54973303  0.38954383    -0.02100
C1357       C  0.50882935  0.55139823  0.39608210     0.02900
C1358       C  0.53344690  0.53000587  0.38044189    -0.05000
C1359       C  0.51775525  0.50595887  0.35905132    -0.02100
C1360       C  0.47819850  0.50357742  0.35308113     0.02900
C1361       C  0.44482674  0.57132149  0.40669575     0.37500
C1362       C  0.54229250  0.98416225  0.34222664     0.37500
C1363       C  0.46332755  0.97773357  0.33172118     0.35900
C1364       C  0.52405632  0.57407050  0.42013179     0.35900
N1365       N  0.45162342  0.95677504  0.31498887    -0.38900
N1366       N  0.53618032  0.59196865  0.43945216    -0.38900
N1367       N  0.56145834  0.96671356  0.32847562    -0.38300
N1368       N  0.42544125  0.58854830  0.42047096    -0.38300
C1369       C  0.72790081  0.59758180  0.46938488    -0.05000
C1370       C  0.76424927  0.58712288  0.48020230    -0.02100
C1371       C  0.78059831  0.60020585  0.50822373     0.02900
C1372       C  0.76031169  0.62342525  0.02649536    -0.05000
C1373       C  0.72334520  0.63279129  0.01620778    -0.02100
C1374       C  0.70767129  0.62081322  0.48751712     0.02900
C1375       C  0.78427646  0.56165709  0.46322369     0.37500
C1376       C  0.70165628  0.65548372  0.03465828     0.37500
C1377       C  0.67059095  0.63315101  0.47652226     0.35900
C1378       C  0.81860536  0.58923572  0.51803248     0.35900
N1379       N  0.64095892  0.64304511  0.46803769    -0.38900
N1380       N  0.84917755  0.58069380  0.52510735    -0.38900
N1381       N  0.68424532  0.67346113  0.04942215    -0.38300
N1382       N  0.80019121  0.54120101  0.44982321    -0.38300
C1383       C  0.53423313  0.93412634  0.12746739    -0.05000
C1384       C  0.51031011  0.91405146  0.14485028    -0.02100
C1385       C  0.47098468  0.91310833  0.13711260     0.02900
C1386       C  0.45502228  0.93186125  0.11156701    -0.05000
C1387       C  0.47917556  0.95090094  0.09353996    -0.02100
C1388       C  0.51830612  0.95264848  0.10183476     0.02900
C1389       C  0.52594318  0.89531592  0.17157588     0.37500
C1390       C  0.46411447  0.96718113  0.06531718     0.37500
C1391       C  0.54218032  0.97287421  0.08326827     0.35900
C1392       C  0.44688530  0.89362399  0.15616923     0.35900
N1393       N  0.56061157  0.98923896  0.06810155    -0.38900
N1394       N  0.42768871  0.87807294  0.17138350    -0.38900
N1395       N  0.45202633  0.97972922  0.04264680    -0.38300
N1396       N  0.53848576  0.88038862  0.19287293    -0.38300
C1397       C  0.73495404  0.76972151  0.10493440    -0.05000
C1398       C  0.71336480  0.76945827  0.13115807    -0.02100
C1399       C  0.68854968  0.79708373  0.13673334     0.02900
C1400       C  0.68366648  0.82428607  0.11523726    -0.05000
C1401       C  0.69881489  0.81994512  0.08636994    -0.02100
C1402       C  0.72713617  0.79514057  0.08235642     0.02900
C1403       C  0.71933539  0.74265986  0.15408069     0.37500
C1404       C  0.68182541  0.83814694  0.05999026     0.37500
C1405       C  0.74940299  0.79735491  0.05583317     0.35900
C1406       C  0.67018527  0.79824744  0.16544632     0.35900
N1407       N  0.76756142  0.80028861  0.03494109    -0.38900
N1408       N  0.65574405  0.79917917  0.18845636    -0.38900
N1409       N  0.66664641  0.85106060  0.03864126    -0.38300
N1410       N  0.72377026  0.72157371  0.17267940    -0.38300
C1411       C  0.75619065  0.51906349  0.14592615    -0.05000
C1412       C  0.75477553  0.54778592  0.16510278    -0.02100
C1413       C  0.77707309  0.57684267  0.16010581     0.02900
C1414       C  0.80243041  0.57732333  0.13589050    -0.05000
C1415       C  0.80790783  0.54614135  0.12001428    -0.02100
C1416       C  0.78437240  0.51751115  0.12451066     0.02900
C1417       C  0.73057711  0.54714287  0.19059183     0.37500
C1418       C  0.83765257  0.54310347  0.09903199     0.37500
C1419       C  0.78812510  0.48699364  0.10600741     0.35900
C1420       C  0.77190130  0.60636648  0.17963249     0.35900
N1421       N  0.79133223  0.96262243  0.09129421    -0.38900
N1422       N  0.76674325  0.62963598  0.19526681    -0.38900
N1423       N  0.86178831  0.54016169  0.08268892    -0.38300
N1424       N  0.71201613  0.54657653  0.21136602    -0.38300
C1425       C  0.66180643  0.97655811  0.05072393    -0.05000
C1426       C  0.67243494  0.95466868  0.02720621    -0.02100
C1427       C  0.65992408  0.96129236  0.49643640     0.02900
C1428       C  0.64199336  0.99302421  0.48801659    -0.05000
C1429       C  0.63405461  0.51637965  0.01169892    -0.02100
C1430       C  0.64348382  0.00796959  0.04275497     0.02900
C1431       C  0.69849124  0.92661590  0.03421185     0.37500
C1432       C  0.61664861  0.54945738  0.50474868     0.37500
C1433       C  0.63607563  0.03287149  0.06643345     0.35900
C1434       C  0.66473731  0.93440428  0.47398723     0.35900
N1435       N  0.62987168  0.55273989  0.08513884    -0.38900
N1436       N  0.66855492  0.91280674  0.45628113    -0.38900
N1437       N  0.60274741  0.57589816  0.49956068    -0.38300
N1438       N  0.72076689  0.90536492  0.03968091    -0.38300
C1439       C  0.63258424  0.97771675  0.23794376    -0.05000
C1440       C  0.63382323  0.95267508  0.26160683    -0.02100
C1441       C  0.64435590  0.96194834  0.29220009     0.02900
C1442       C  0.65368067  0.49623359  0.29971387    -0.05000
C1443       C  0.64796627  0.52176053  0.27693318    -0.02100
C1444       C  0.63715823  0.51259120  0.24623865     0.02900
C1445       C  0.62570599  0.91696460  0.25492225     0.37500
C1446       C  0.64988299  0.55760775  0.28539500     0.37500
C1447       C  0.62871841  0.53929330  0.22356648     0.35900
C1448       C  0.64504037  0.93590081  0.31609119     0.35900
N1449       N  0.62193654  0.56063546  0.20554872    -0.38900
N1450       N  0.64467247  0.91520637  0.33509830    -0.38900
N1451       N  0.65031104  0.58638660  0.29164685    -0.38300
N1452       N  0.61927091  0.88839223  0.25005756    -0.38300
C1453       C  0.95528434  0.78729190  0.36375881    -0.05000
C1454       C  0.98070636  0.77880108  0.34131225    -0.02100
C1455       C  0.02002229  0.78012667  0.34859512     0.02900
C1456       C  0.03416715  0.78677049  0.37898968    -0.05000
C1457       C  0.00885683  0.79617263  0.40122413    -0.02100
C1458       C  0.96961689  0.79752432  0.39331622     0.02900
C1459       C  0.96650771  0.76962489  0.31044068     0.37500
C1460       C  0.02322795  0.80485416  0.43215047     0.37500
C1461       C  0.94387981  0.80912478  0.41562643     0.35900
C1462       C  0.04589403  0.77741327  0.32439909     0.35900
N1463       N  0.92311443  0.81845329  0.43321867    -0.38900
N1464       N  0.06642346  0.77657712  0.30491235    -0.38900
N1465       N  0.03462721  0.81184128  0.45684038    -0.38300
N1466       N  0.95538744  0.76214216  0.28579792    -0.38300
C1467       C  0.75210892  0.84213828  0.27736847    -0.05000
C1468       C  0.73867388  0.87600020  0.27882331    -0.02100
C1469       C  0.73017913  0.89478922  0.25152244     0.02900
C1470       C  0.73231611  0.87907607  0.22248400    -0.05000
C1471       C  0.74588335  0.84526884  0.22108351    -0.02100
C1472       C  0.75391603  0.82635186  0.24833876     0.02900
C1473       C  0.73281050  0.89107139  0.30841135     0.37500
C1474       C  0.75400322  0.83090263  0.19172967     0.37500
C1475       C  0.76158023  0.78993093  0.24673425     0.35900
C1476       C  0.72347029  0.93133342  0.25303639     0.35900
N1477       N  0.76639327  0.76064784  0.24556911    -0.38900
N1478       N  0.71971806  0.96074481  0.25403966    -0.38900
N1479       N  0.76184473  0.82047623  0.16818460    -0.38300
N1480       N  0.72713042  0.90221028  0.33223063    -0.38300
C1481       C  0.83744650  0.72545032  0.19522580    -0.05000
C1482       C  0.84341920  0.76039148  0.20222196    -0.02100
C1483       C  0.85190200  0.77074430  0.23280256     0.02900
C1484       C  0.85493487  0.74599546  0.25669339    -0.05000
C1485       C  0.85436588  0.71081161  0.24885920    -0.02100
C1486       C  0.84559329  0.70060623  0.21818058     0.02900
C1487       C  0.84232426  0.78574153  0.17772914     0.37500
C1488       C  0.86518998  0.68516723  0.27195768     0.37500
C1489       C  0.84881784  0.66487643  0.20972093     0.35900
C1490       C  0.85649464  0.80700582  0.23921107     0.35900
N1491       N  0.85254681  0.63645785  0.20303773    -0.38900
N1492       N  0.86025748  0.83599647  0.24385618    -0.38900
N1493       N  0.87397634  0.66472609  0.29036185    -0.38300
N1494       N  0.84240118  0.80585012  0.15819964    -0.38300
C1495       C  0.84917787  0.72403333  0.00821558    -0.05000
C1496       C  0.81242253  0.73179453  0.49594708    -0.02100
C1497       C  0.80624689  0.74375677  0.46560815     0.02900
C1498       C  0.83653577  0.74557190  0.44612826    -0.05000
C1499       C  0.87321083  0.73484138  0.45809106    -0.02100
C1500       C  0.87948131  0.72516129  0.98924750     0.02900
C1501       C  0.78029080  0.72548101  0.01401004     0.37500
C1502       C  0.90483553  0.73265585  0.43878950     0.37500
C1503       C  0.91720748  0.71659253  0.00193531     0.35900
C1504       C  0.76806415  0.75288935  0.45471380     0.35900
N1505       N  0.94718716  0.70975637  0.01220023    -0.38900
N1506       N  0.73741608  0.76031098  0.44676067    -0.38900
N1507       N  0.93023571  0.72987823  0.42368998    -0.38300
N1508       N  0.75439502  0.72039704  0.02800729    -0.38300
C1509       C  0.76090737  0.95570188  0.39283456    -0.05000
C1510       C  0.77989268  0.95346465  0.36546301    -0.02100
C1511       C  0.80373011  0.92515451  0.36031188     0.02900
C1512       C  0.80778483  0.89822115  0.38227629    -0.05000
C1513       C  0.79436066  0.90409602  0.41182133    -0.02100
C1514       C  0.77138569  0.93301810  0.41708703     0.02900
C1515       C  0.77318847  0.97922275  0.34165889     0.37500
C1516       C  0.80394454  0.88036896  0.43680027     0.37500
C1517       C  0.75995257  0.94041647  0.44766100     0.35900
C1518       C  0.82115118  0.92280458  0.33120772     0.35900
N1519       N  0.75197839  0.94691872  0.47230090    -0.38900
N1520       N  0.83486039  0.92102085  0.30790901    -0.38900
N1521       N  0.81167338  0.86144475  0.45673281    -0.38300
N1522       N  0.76823534  0.99961336  0.32249618    -0.38300
C1523       C  0.73387558  0.70180423  0.35161414    -0.05000
C1524       C  0.70203417  0.70419303  0.36946738    -0.02100
C1525       C  0.67934404  0.67493785  0.37426483     0.02900
C1526       C  0.68811838  0.64280322  0.36127212    -0.05000
C1527       C  0.71720953  0.64224154  0.33995489    -0.02100
C1528       C  0.73881456  0.67167771  0.33481435     0.02900
C1529       C  0.69199778  0.73681654  0.38250158     0.37500
C1530       C  0.72712736  0.61142377  0.32362668     0.37500
C1531       C  0.76508274  0.67157057  0.31072505     0.35900
C1532       C  0.64669626  0.67829237  0.39222275     0.35900
N1533       N  0.78515358  0.67155916  0.29093142    -0.38900
N1534       N  0.62035665  0.68118971  0.40623818    -0.38900
N1535       N  0.73602267  0.58729773  0.31044032    -0.38300
N1536       N  0.68322861  0.76297193  0.39232133    -0.38300
O1537       O  0.80509446  0.83732559  0.88588646    -0.81400
C1538       C  0.85510914  0.75665756  0.78949365     0.97900
O1539       O  0.86976817  0.78474863  0.79821922    -0.70600
O1540       O  0.80942171  0.82204385  0.79895718    -0.74200
Al1541     Al  0.85062672  0.81695832  0.82709215     1.49000
C1542       C  0.77549435  0.82773127  0.80381332     0.93200
O1543       O  0.75511484  0.76018455  0.85099584    -0.80400
O1544       O  0.85222637  0.74622077  0.89413135    -0.73900
Al1545     Al  0.78459475  0.79769634  0.86640109     1.90100
O1546       O  0.79814387  0.72036009  0.85432403    -0.73000
O1547       O  0.89801813  0.75752572  0.85048080    -0.72900
O1548       O  0.83912581  0.73822955  0.80845104    -0.78500
O1549       O  0.89504382  0.81368169  0.85386821    -0.76700
O1550       O  0.82648512  0.78629333  0.84863034    -1.12900
O1551       O  0.83583537  0.85736443  0.84874977    -0.72000
C1552       C  0.81824983  0.86253447  0.87248110     0.98700
C1553       C  0.76378132  0.72901699  0.85208460     0.95100
Al1554     Al  0.84527614  0.74402554  0.85150940     1.55600
O1555       O  0.76316399  0.82327405  0.83036896    -0.76700
C1556       C  0.91390487  0.78612963  0.85603880     0.99200
C1557       C  0.82941622  0.75615673  0.91315124     0.94100
O1558       O  0.80039348  0.77382073  0.90425341    -0.82000
O1559       O  0.69523989  0.94900347  0.59418444    -0.81400
C1560       C  0.63148848  0.96721052  0.70489472     0.97900
O1561       O  0.64771638  0.98535557  0.68586057    -0.70600
O1562       O  0.69191639  0.00135278  0.64153876    -0.74200
Al1563     Al  0.64431293  0.97793624  0.64291010     1.51400
C1564       C  0.72605110  0.99249662  0.64631895     0.93200
O1565       O  0.72454717  0.89780352  0.66923196    -0.80400
O1566       O  0.65395046  0.86481108  0.64836210    -0.73900
Al1567     Al  0.70639229  0.92419113  0.63259245     1.90100
O1568       O  0.67690483  0.90146200  0.69895790    -0.73000
O1569       O  0.59451528  0.90842061  0.64043072    -0.72900
O1570       O  0.61656816  0.93919385  0.69612767    -0.78500
O1571       O  0.59127413  0.96459987  0.64167036    -0.76700
O1572       O  0.66302913  0.93593715  0.64788460    -1.12900
O1573       O  0.64035384  0.97369969  0.60040529    -0.72000
C1574       C  0.66634361  0.96568150  0.58348394     0.98700
C1575       C  0.71080175  0.89426915  0.69535042     0.95100
Al1576     Al  0.63747126  0.90588907  0.66891058     1.55600
O1577       O  0.73451293  0.96142413  0.65003090    -0.76700
C1578       C  0.57560751  0.93580725  0.63645309     0.99200
C1579       C  0.67245234  0.85976494  0.62499725     0.94100
O1580       O  0.68605352  0.88508073  0.61189270    -0.82000
O1581       O  0.67960608  0.58257262  0.85879303    -0.81400
C1582       C  0.63705015  0.50335748  0.95480490     0.97900
O1583       O  0.61885048  0.53029005  0.94609705    -0.70600
O1584       O  0.67504749  0.57079802  0.94668056    -0.74200
Al1585     Al  0.63621216  0.56444529  0.91738334     1.49000
C1586       C  0.70782661  0.58026428  0.94249027     0.93200
O1587       O  0.73510712  0.51155314  0.89859863    -0.80400
O1588       O  0.63854638  0.49606243  0.85080584    -0.73900
Al1589     Al  0.70417936  0.54685884  0.88027583     1.90100
O1590       O  0.69524125  0.96999339  0.88955658    -0.73000
O1591       O  0.59296970  0.50328579  0.89429212    -0.72900
O1592       O  0.65333732  0.98592689  0.93528393    -0.78500
O1593       O  0.59256643  0.55938410  0.88958965    -0.76700
O1594       O  0.66265341  0.53442851  0.89681537    -1.12900
O1595       O  0.65193116  0.60658214  0.89544245    -0.72000
C1596       C  0.67085545  0.60948070  0.87180115     0.98700
C1597       C  0.72877471  0.98022817  0.89473262     0.95100
Al1598     Al  0.64630318  0.49196204  0.89294302     1.55600
O1599       O  0.72190554  0.57552179  0.91645510    -0.76700
C1600       C  0.57521045  0.53105651  0.88801082     0.99200
C1601       C  0.66218688  0.50545598  0.83244495     0.94100
O1602       O  0.69224537  0.52111924  0.84191668    -0.82000
O1603       O  0.79916771  0.70065295  0.65330040    -0.81400
C1604       C  0.85482304  0.71487117  0.54102497     0.97900
O1605       O  0.84041250  0.73410296  0.56033528    -0.70600
O1606       O  0.79982866  0.75221091  0.60667201    -0.74200
Al1607     Al  0.84703807  0.72766185  0.60271731     1.49000
C1608       C  0.76567748  0.74378288  0.60193654     0.93200
O1609       O  0.76623957  0.64762085  0.57887026    -0.80400
O1610       O  0.83626802  0.61383724  0.60088849    -0.73900
Al1611     Al  0.78554699  0.67555625  0.61506889     1.90100
O1612       O  0.81385613  0.64914410  0.54927456    -0.73000
O1613       O  0.89636570  0.65800634  0.60617893    -0.72900
O1614       O  0.87163935  0.68721893  0.54944942    -0.78500
O1615       O  0.89938539  0.71389787  0.60111916    -0.76700
O1616       O  0.82806630  0.68584935  0.59881807    -1.12900
O1617       O  0.85447499  0.72319136  0.64481279    -0.72000
C1618       C  0.82983341  0.71527145  0.66283634     0.98700
C1619       C  0.78056470  0.64113873  0.55323013     0.95100
Al1620     Al  0.85293547  0.65452825  0.57847128     1.55600
O1621       O  0.75740573  0.71291522  0.59710743    -0.76700
C1622       C  0.91521354  0.68538946  0.60781724     0.99200
C1623       C  0.81728254  0.61111567  0.62441438     0.94100
O1624       O  0.80646817  0.63799573  0.63652004    -0.82000
O1625       O  0.18841763  0.82546993  0.85553052    -0.81400
C1626       C  0.13396497  0.75961572  0.95686343     0.97900
O1627       O  0.12041519  0.78803074  0.94675290    -0.70600
O1628       O  0.17865818  0.82550898  0.94207188    -0.74200
Al1629     Al  0.13893724  0.81660297  0.91421217     1.49000
C1630       C  0.21292572  0.82904655  0.93833665     0.93200
O1631       O  0.23322793  0.75318265  0.90233951    -0.80400
O1632       O  0.13743761  0.74076249  0.85286026    -0.73900
Al1633     Al  0.20691572  0.78916020  0.88043332     1.90100
O1634       O  0.18955754  0.71473320  0.89532861    -0.73000
O1635       O  0.09048659  0.75615268  0.89517215    -0.72900
O1636       O  0.14778110  0.73850623  0.93877890    -0.78500
O1637       O  0.09483021  0.81142855  0.88774691    -0.76700
O1638       O  0.16320138  0.78241570  0.89672033    -1.12900
O1639       O  0.15474360  0.85279931  0.88733016    -0.72000
C1640       C  0.17396480  0.85293546  0.86391322     0.98700
C1641       C  0.22400528  0.72225017  0.90020636     0.95100
Al1642     Al  0.14289877  0.74094122  0.89580493     1.55600
O1643       O  0.22706384  0.81952028  0.91362499    -0.76700
C1644       C  0.07535873  0.78462223  0.88739288     0.99200
C1645       C  0.16367653  0.74475540  0.83516032     0.94100
O1646       O  0.19380429  0.76002689  0.84490475    -0.82000
O1647       O  0.29529382  0.94886908  0.64857324    -0.81400
C1648       C  0.35047993  0.95432984  0.53550088     0.97900
O1649       O  0.33788567  0.97549857  0.55425721    -0.70600
O1650       O  0.29909898  0.99972340  0.59952491    -0.74200
Al1651     Al  0.34426375  0.97262572  0.59705739     1.49000
C1652       C  0.26475026  0.99319397  0.59411960     0.93200
O1653       O  0.25899366  0.89903787  0.57424880    -0.80400
O1654       O  0.33820816  0.86146223  0.60787162    -0.73900
Al1655     Al  0.27949225  0.92429310  0.61030192     1.90100
O1656       O  0.31021443  0.88365868  0.55213977    -0.73000
O1657       O  0.39482146  0.90467272  0.60425867    -0.72900
O1658       O  0.36440545  0.92562623  0.54484799    -0.78500
O1659       O  0.39655492  0.95935806  0.59562358    -0.76700
O1660       O  0.32423934  0.93073546  0.59565462    -1.12900
O1661       O  0.35054401  0.97139138  0.63998246    -0.72000
C1662       C  0.32580398  0.96397993  0.65840520     0.98700
C1663       C  0.27509448  0.88512288  0.55221872     0.95100
Al1664     Al  0.34993736  0.89680063  0.57895679     1.55600
O1665       O  0.25495087  0.96270044  0.59115483    -0.76700
C1666       C  0.41333505  0.93191736  0.60365585     0.99200
C1667       C  0.31385214  0.85939167  0.62759204     0.94100
O1668       O  0.29267234  0.88438950  0.63175197    -0.82000
O1669       O  0.19552382  0.70517360  0.59313137    -0.81400
C1670       C  0.13840564  0.70886487  0.70571462     0.97900
O1671       O  0.15183403  0.73018947  0.68770315    -0.70600
O1672       O  0.19321919  0.75207583  0.64378256    -0.74200
Al1673     Al  0.14604543  0.72780799  0.64467124     1.49000
C1674       C  0.22716358  0.74291720  0.64910464     0.93200
O1675       O  0.22683088  0.64547972  0.66343061    -0.80400
O1676       O  0.15656599  0.61451812  0.63860655    -0.73900
Al1677     Al  0.20800436  0.67658817  0.62946635     1.90100
O1678       O  0.17870625  0.64461583  0.69247023    -0.73000
O1679       O  0.09677559  0.65874463  0.63639886    -0.72900
O1680       O  0.12115975  0.68258047  0.69501603    -0.78500
O1681       O  0.09373820  0.71404248  0.64438532    -0.76700
O1682       O  0.16498919  0.68562739  0.64576076    -1.12900
O1683       O  0.13992248  0.72768708  0.60194593    -0.72000
C1684       C  0.16494102  0.72039172  0.58386874     0.98700
C1685       C  0.21218792  0.63722151  0.68841022     0.95100
Al1686     Al  0.13995804  0.65274747  0.66376867     1.55600
O1687       O  0.23537463  0.71162669  0.65080185    -0.76700
C1688       C  0.07769567  0.68611747  0.63657955     0.99200
C1689       C  0.17584114  0.61362103  0.61518003     0.94100
O1690       O  0.18757517  0.64121222  0.60513733    -0.82000
O1691       O  0.29424426  0.57479652  0.88377322    -0.81400
C1692       C  0.35156467  0.50257781  0.78838122     0.97900
O1693       O  0.36816458  0.52983082  0.79821218    -0.70600
O1694       O  0.31358900  0.57163584  0.80021922    -0.74200
Al1695     Al  0.35040417  0.56094663  0.82993484     1.49000
C1696       C  0.27898914  0.57641921  0.80105418     0.93200
O1697       O  0.25334794  0.50115932  0.83892865    -0.80400
O1698       O  0.34616810  0.48879279  0.89241770    -0.73900
Al1699     Al  0.27836369  0.53760773  0.86009346     1.90100
O1700       O  0.29526112  0.96182359  0.85069394    -0.73000
O1701       O  0.39506793  0.49863997  0.85055129    -0.72900
O1702       O  0.33790130  0.98203763  0.80696933    -0.78500
O1703       O  0.39291479  0.55361982  0.85835767    -0.76700
O1704       O  0.32330083  0.52867434  0.84677669    -1.12900
O1705       O  0.33438791  0.59936472  0.85579227    -0.72000
C1706       C  0.31108164  0.60126171  0.87666536     0.98700
C1707       C  0.26163363  0.97017264  0.84308610     0.95100
Al1708     Al  0.34214707  0.48633200  0.84979901     1.55600
O1709       O  0.26173442  0.56652290  0.82425067    -0.76700
C1710       C  0.41162313  0.52605831  0.85885233     0.99200
C1711       C  0.31949868  0.49601932  0.90900262     0.94100
O1712       O  0.28920498  0.51077062  0.89806891    -0.82000
C1713       C  0.23223379  0.61839040  0.71446854    -0.05000
C1714       C  0.21185991  0.59382891  0.73087163    -0.02100
C1715       C  0.22541642  0.58215932  0.76024640     0.02900
C1716       C  0.26038647  0.59355428  0.77322516    -0.05000
C1717       C  0.28094780  0.61796451  0.75662967    -0.02100
C1718       C  0.26730290  0.62963302  0.72721169     0.02900
C1719       C  0.17646900  0.58026111  0.71758506     0.37500
C1720       C  0.31558690  0.63262840  0.77027824     0.37500
C1721       C  0.28887182  0.65401382  0.71051649     0.35900
C1722       C  0.20304879  0.55852331  0.77701116     0.35900
N1723       N  0.30615918  0.67329666  0.69708965    -0.38900
N1724       N  0.18488249  0.53990186  0.79036477    -0.38900
N1725       N  0.34318973  0.64449946  0.78093320    -0.38300
N1726       N  0.14807007  0.56951672  0.70740209    -0.38300
C1727       C  0.25765585  0.76915321  0.65142429    -0.05000
C1728       C  0.28945372  0.76602020  0.63362959    -0.02100
C1729       C  0.31336351  0.79443046  0.62992908     0.02900
C1730       C  0.30491989  0.82632000  0.64327323    -0.05000
C1731       C  0.27848384  0.82672291  0.66629423    -0.02100
C1732       C  0.25396606  0.79881267  0.66945092     0.02900
C1733       C  0.29562239  0.73482466  0.61658573     0.37500
C1734       C  0.27573440  0.85629017  0.68620706     0.37500
C1735       C  0.22441353  0.80110132  0.69074863     0.35900
C1736       C  0.34518830  0.79112941  0.61099576     0.35900
N1737       N  0.20093808  0.80321032  0.70780985    -0.38900
N1738       N  0.37060506  0.78835616  0.59591829    -0.38900
N1739       N  0.27368175  0.87982839  0.70213320    -0.38300
N1740       N  0.30048304  0.71007423  0.60278343    -0.38300
C1741       C  0.19017185  0.58056843  0.60191260    -0.05000
C1742       C  0.17997716  0.54825502  0.61347990    -0.02100
C1743       C  0.20237754  0.51880143  0.60859602     0.02900
C1744       C  0.23588982  0.52147063  0.59286786    -0.05000
C1745       C  0.24274267  0.55231414  0.57749462    -0.02100
C1746       C  0.21946706  0.58129752  0.58105131     0.02900
C1747       C  0.14633650  0.54500023  0.63024217     0.37500
C1748       C  0.27357070  0.55425245  0.55743814     0.37500
C1749       C  0.22659445  0.61173416  0.56316625     0.35900
C1750       C  0.19116943  0.98600768  0.62045838     0.35900
N1751       N  0.23247472  0.63579708  0.54874967    -0.38900
N1752       N  0.18169270  0.95980134  0.62954534    -0.38900
N1753       N  0.29785344  0.55630938  0.54119182    -0.38300
N1754       N  0.11930136  0.54225849  0.64338855    -0.38300
C1755       C  0.33279569  0.97430506  0.69179430    -0.05000
C1756       C  0.30252646  0.97678077  0.71123151    -0.02100
C1757       C  0.30900714  0.98660340  0.74230500     0.02900
C1758       C  0.34566894  0.99467447  0.75483436    -0.05000
C1759       C  0.37575620  0.99374576  0.73552931    -0.02100
C1760       C  0.36967203  0.98338963  0.70438928     0.02900
C1761       C  0.26400166  0.97051200  0.69945492     0.37500
C1762       C  0.41325992  0.50279896  0.74792849     0.37500
C1763       C  0.40206460  0.98213180  0.68585603     0.35900
C1764       C  0.27695597  0.98940061  0.76098676     0.35900
N1765       N  0.42811070  0.98158788  0.67130227    -0.38900
N1766       N  0.25038344  0.99112216  0.77476772    -0.38900
N1767       N  0.44317889  0.51015546  0.75772847    -0.38300
N1768       N  0.23311798  0.96566344  0.69050426    -0.38300
C1769       C  0.34716944  0.96376012  0.50222902    -0.05000
C1770       C  0.35013380  0.49862924  0.49371444    -0.02100
C1771       C  0.33824133  0.50957992  0.96377114     0.02900
C1772       C  0.32478837  0.48565073  0.94159257    -0.05000
C1773       C  0.32501812  0.95046254  0.94912797    -0.02100
C1774       C  0.33601880  0.93948193  0.97932016     0.02900
C1775       C  0.36794151  0.52292744  0.51519778     0.37500
C1776       C  0.31494546  0.92540407  0.92540615     0.37500
C1777       C  0.33638998  0.90314775  0.98614962     0.35900
C1778       C  0.34193833  0.54527993  0.95535346     0.35900
N1779       N  0.33693480  0.87394860  0.99073686    -0.38900
N1780       N  0.34529905  0.57379246  0.94891910    -0.38900
N1781       N  0.30722311  0.90547100  0.90641641    -0.38300
N1782       N  0.38242788  0.54212992  0.53233325    -0.38300
C1783       C  0.23522932  0.84354784  0.96503796    -0.05000
C1784       C  0.23490340  0.87928925  0.96996989    -0.02100
C1785       C  0.24397654  0.89287920  0.49960528     0.02900
C1786       C  0.25429287  0.87086871  0.52451512    -0.05000
C1787       C  0.25511467  0.83515247  0.51939276    -0.02100
C1788       C  0.24528665  0.82157692  0.98996401     0.02900
C1789       C  0.22554027  0.90221569  0.94447313     0.37500
C1790       C  0.26577479  0.81209066  0.54448709     0.37500
C1791       C  0.24420257  0.78474079  0.98540770     0.35900
C1792       C  0.24376500  0.92965359  0.50435953     0.35900
N1793       N  0.24310824  0.75543640  0.98158581    -0.38900
N1794       N  0.24355945  0.95896415  0.50821884    -0.38900
N1795       N  0.27384532  0.79294115  0.56408993    -0.38300
N1796       N  0.21883677  0.92110306  0.92438136    -0.38300
C1797       C  0.13583656  0.75086618  0.99024714    -0.05000
C1798       C  0.13253871  0.71622587  0.99936429    -0.02100
C1799       C  0.14355595  0.70605284  0.52972031     0.02900
C1800       C  0.15736868  0.73043191  0.55137502    -0.05000
C1801       C  0.15750948  0.76537663  0.54319680    -0.02100
C1802       C  0.14655629  0.77567720  0.51282358     0.02900
C1803       C  0.11632156  0.69115038  0.97782647     0.37500
C1804       C  0.16893213  0.79080643  0.56621258     0.37500
C1805       C  0.14648606  0.81184068  0.50529616     0.35900
C1806       C  0.13930991  0.67065699  0.53894363     0.35900
N1807       N  0.14614385  0.84090054  0.50004239    -0.38900
N1808       N  0.13560373  0.64239816  0.54607179    -0.38900
N1809       N  0.17792111  0.81104467  0.58460643    -0.38300
N1810       N  0.10326240  0.67117524  0.96071023    -0.38300
C1811       C  0.14543211  0.71409931  0.73939547    -0.05000
C1812       C  0.18134274  0.72520322  0.75108864    -0.02100
C1813       C  0.18761994  0.73490740  0.78209931     0.02900
C1814       C  0.15864916  0.73134725  0.80269970    -0.05000
C1815       C  0.12476953  0.71442928  0.79174011    -0.02100
C1816       C  0.11775896  0.70715489  0.76009759     0.02900
C1817       C  0.21310613  0.72439302  0.73186420     0.37500
C1818       C  0.09715558  0.70315691  0.81260824     0.37500
C1819       C  0.08195907  0.69256068  0.74893421     0.35900
C1820       C  0.22468596  0.74748151  0.79233917     0.35900
N1821       N  0.05350492  0.68073585  0.74005195    -0.38900
N1822       N  0.25446821  0.75743240  0.79988711    -0.38900
N1823       N  0.07498353  0.69394305  0.82899483    -0.38300
N1824       N  0.23929215  0.72351679  0.71754686    -0.38300
C1825       C  0.18514204  0.88576698  0.84872750    -0.05000
C1826       C  0.17513938  0.91811734  0.86045285    -0.02100
C1827       C  0.19828236  0.94695464  0.85617723     0.02900
C1828       C  0.23175882  0.94340874  0.84052363    -0.05000
C1829       C  0.23767449  0.91290060  0.82427474    -0.02100
C1830       C  0.21318282  0.88491804  0.82696091     0.02900
C1831       C  0.14178669  0.92174077  0.87760152     0.37500
C1832       C  0.26933816  0.91004064  0.80507355     0.37500
C1833       C  0.21693917  0.85553391  0.80704694     0.35900
C1834       C  0.18903078  0.97943078  0.86998857     0.35900
N1835       N  0.21965218  0.83239594  0.79077071    -0.38900
N1836       N  0.18144615  0.00532129  0.88096557    -0.38900
N1837       N  0.29466007  0.90763055  0.78985375    -0.38300
N1838       N  0.11510669  0.92469043  0.89120546    -0.38300
C1839       C  0.25351887  0.69436893  0.90128334    -0.05000
C1840       C  0.28578676  0.69651807  0.88389255    -0.02100
C1841       C  0.30817427  0.66695466  0.87888552     0.02900
C1842       C  0.29829911  0.63469102  0.89078887    -0.05000
C1843       C  0.27000258  0.63443649  0.91270432    -0.02100
C1844       C  0.24782077  0.66392004  0.91754206     0.02900
C1845       C  0.29546273  0.72882140  0.87016653     0.37500
C1846       C  0.26235176  0.60383880  0.93015597     0.37500
C1847       C  0.21916121  0.66306980  0.93973546     0.35900
C1848       C  0.34128753  0.66999981  0.86146935     0.35900
N1849       N  0.19663714  0.66241178  0.95768077    -0.38900
N1850       N  0.36806502  0.67260850  0.84797882    -0.38900
N1851       N  0.25562536  0.57966993  0.94413340    -0.38300
N1852       N  0.30365995  0.75463237  0.85947397    -0.38300
C1853       C  0.95648651  0.68432086  0.61610831    -0.05000
C1854       C  0.98016327  0.66207140  0.60046484    -0.02100
C1855       C  0.01963622  0.66253894  0.60704476     0.02900
C1856       C  0.03596721  0.68537283  0.62936330    -0.05000
C1857       C  0.01197566  0.70706317  0.64548941    -0.02100
C1858       C  0.97260289  0.70666669  0.63873242     0.02900
C1859       C  0.96411863  0.63957602  0.57658757     0.37500
C1860       C  0.02738108  0.72903878  0.67004184     0.37500
C1861       C  0.94865846  0.72875086  0.65590112     0.35900
C1862       C  0.04327955  0.63992565  0.59013479     0.35900
N1863       N  0.93009693  0.74654170  0.66986877    -0.38900
N1864       N  0.06191856  0.62164402  0.57671104    -0.38900
N1865       N  0.03959251  0.74657060  0.68961548    -0.38300
N1866       N  0.95137906  0.62165527  0.55752137    -0.38300
C1867       C  0.45344120  0.52619594  0.86754795    -0.05000
C1868       C  0.46924842  0.54976269  0.88952478    -0.02100
C1869       C  0.50882126  0.55142660  0.89605997     0.02900
C1870       C  0.53343448  0.53001174  0.88043803    -0.05000
C1871       C  0.51773653  0.50594125  0.85907169    -0.02100
C1872       C  0.47817886  0.50356414  0.85310253     0.02900
C1873       C  0.44482458  0.57137580  0.90666007     0.37500
C1874       C  0.54232740  0.98420194  0.84218084     0.37500
C1875       C  0.46336252  0.97773577  0.83169883     0.35900
C1876       C  0.52405220  0.57411962  0.92009180     0.35900
N1877       N  0.45166245  0.95678031  0.81496156    -0.38900
N1878       N  0.53617882  0.59203399  0.93939859    -0.38900
N1879       N  0.56149630  0.96678130  0.82840632    -0.38300
N1880       N  0.42544315  0.58862197  0.92042115    -0.38300
C1881       C  0.72788001  0.59758148  0.96939619    -0.05000
C1882       C  0.76423770  0.58713840  0.98020317    -0.02100
C1883       C  0.78059428  0.60023227  0.00821746     0.02900
C1884       C  0.76032287  0.62341441  0.52649136    -0.05000
C1885       C  0.72336875  0.63280376  0.51618941    -0.02100
C1886       C  0.70764404  0.62079930  0.98753714     0.02900
C1887       C  0.78426665  0.56167497  0.96322305     0.37500
C1888       C  0.70168932  0.65551734  0.53462776     0.37500
C1889       C  0.67055383  0.63312317  0.97655248     0.35900
C1890       C  0.81861856  0.58929224  0.01800501     0.35900
N1891       N  0.64091488  0.64300607  0.96807422    -0.38900
N1892       N  0.84920472  0.58077641  0.02506092    -0.38900
N1893       N  0.68428635  0.67351197  0.54938214    -0.38300
N1894       N  0.80018176  0.54121892  0.94982288    -0.38300
C1895       C  0.53425289  0.93409347  0.62744492    -0.05000
C1896       C  0.51032956  0.91401307  0.64482231    -0.02100
C1897       C  0.47100505  0.91307149  0.63708283     0.02900
C1898       C  0.45504427  0.93183289  0.61154184    -0.05000
C1899       C  0.47919951  0.95086882  0.59351391    -0.02100
C1900       C  0.51832989  0.95261237  0.60180903     0.02900
C1901       C  0.52596173  0.89526543  0.67154119     0.37500
C1902       C  0.46414141  0.96714541  0.56528846     0.37500
C1903       C  0.54220895  0.97282427  0.58323559     0.35900
C1904       C  0.44690582  0.89357539  0.65613043     0.35900
N1905       N  0.56064324  0.98917543  0.56806040    -0.38900
N1906       N  0.42770919  0.87801304  0.67133597    -0.38900
N1907       N  0.45205698  0.97968990  0.54261522    -0.38300
N1908       N  0.53850359  0.88032666  0.69283186    -0.38300
C1909       C  0.73497950  0.76971705  0.60492404    -0.05000
C1910       C  0.71336058  0.76944074  0.63113014    -0.02100
C1911       C  0.68854854  0.79706912  0.63670385     0.02900
C1912       C  0.68369807  0.82428801  0.61522134    -0.05000
C1913       C  0.69888198  0.81996507  0.58636532    -0.02100
C1914       C  0.72720333  0.79515918  0.58236059     0.02900
C1915       C  0.71930501  0.74262849  0.65404275     0.37500
C1916       C  0.68193396  0.83819125  0.55998360     0.37500
C1917       C  0.74951724  0.79739858  0.55586636     0.35900
C1918       C  0.67015688  0.79821890  0.66540436     0.35900
N1919       N  0.76771547  0.80035145  0.53500044    -0.38900
N1920       N  0.65569474  0.79913891  0.68840518    -0.38900
N1921       N  0.66678792  0.85112368  0.53862991    -0.38300
N1922       N  0.72372302  0.72153107  0.67263269    -0.38300
C1923       C  0.75621133  0.51905095  0.64593870    -0.05000
C1924       C  0.75479539  0.54777580  0.66511346    -0.02100
C1925       C  0.77710653  0.57682637  0.66012419     0.02900
C1926       C  0.80246238  0.57730565  0.63590861    -0.05000
C1927       C  0.80794860  0.54611955  0.62004225    -0.02100
C1928       C  0.78441103  0.51748968  0.62453836     0.02900
C1929       C  0.73058837  0.54713996  0.69059661     0.37500
C1930       C  0.83771254  0.54307526  0.59907869     0.37500
C1931       C  0.78818594  0.48696074  0.60605476     0.35900
C1932       C  0.77196168  0.60634305  0.67966539     0.35900
N1933       N  0.79129529  0.96264991  0.59125457    -0.38900
N1934       N  0.76682781  0.62960653  0.69531310    -0.38900
N1935       N  0.86186600  0.54012888  0.58275313    -0.38300
N1936       N  0.71202192  0.54658191  0.71136749    -0.38300
C1937       C  0.66182813  0.97656247  0.55072241    -0.05000
C1938       C  0.67249148  0.95469133  0.52720363    -0.02100
C1939       C  0.65986998  0.96127538  0.99643964     0.02900
C1940       C  0.64198160  0.99302435  0.98801823    -0.05000
C1941       C  0.63409345  0.51639407  0.51170747    -0.02100
C1942       C  0.64347918  0.00796201  0.54275452     0.02900
C1943       C  0.69858701  0.92666754  0.53420919     0.37500
C1944       C  0.61655515  0.54942018  0.00473992     0.37500
C1945       C  0.63605260  0.03285717  0.56643387     0.35900
C1946       C  0.66463766  0.93437665  0.97399213     0.35900
N1947       N  0.62994775  0.55275614  0.58515080    -0.38900
N1948       N  0.66841666  0.91277025  0.95628728    -0.38900
N1949       N  0.60261001  0.57584236  0.99955057    -0.38300
N1950       N  0.72089111  0.90544076  0.53967867    -0.38300
C1951       C  0.63258255  0.97770282  0.73793990    -0.05000
C1952       C  0.63382998  0.95265938  0.76160179    -0.02100
C1953       C  0.64436850  0.96193095  0.79219488     0.02900
C1954       C  0.65369001  0.49624861  0.79971367    -0.05000
C1955       C  0.64798817  0.52177353  0.77693013    -0.02100
C1956       C  0.63717363  0.51260253  0.74623797     0.02900
C1957       C  0.62571249  0.91694936  0.75491608     0.37500
C1958       C  0.64992741  0.55762168  0.78538546     0.37500
C1959       C  0.62873393  0.53930301  0.72356409     0.35900
C1960       C  0.64506446  0.93588086  0.81608415     0.35900
N1961       N  0.62195179  0.56064348  0.70554475    -0.38900
N1962       N  0.64470624  0.91518434  0.83509008    -0.38900
N1963       N  0.65037471  0.58640239  0.79163011    -0.38300
N1964       N  0.61927611  0.88837743  0.75005037    -0.38300
C1965       C  0.95529058  0.78729000  0.86375309    -0.05000
C1966       C  0.98070944  0.77876429  0.84131411    -0.02100
C1967       C  0.02002596  0.78009127  0.84859354     0.02900
C1968       C  0.03417409  0.78676986  0.87898093    -0.05000
C1969       C  0.00886686  0.79620461  0.90120729    -0.02100
C1970       C  0.96962740  0.79755995  0.89329867     0.02900
C1971       C  0.96650670  0.76955431  0.81045188     0.37500
C1972       C  0.02324028  0.80490826  0.93212792     0.37500
C1973       C  0.94389557  0.80920050  0.91559739     0.35900
C1974       C  0.04589417  0.77734708  0.82439780     0.35900
N1975       N  0.92313522  0.81856036  0.93318114    -0.38900
N1976       N  0.06641835  0.77648818  0.80490811    -0.38900
N1977       N  0.03464175  0.81191033  0.95681367    -0.38300
N1978       N  0.95538184  0.76204507  0.78581702    -0.38300
C1979       C  0.75211482  0.84214582  0.77737489    -0.05000
C1980       C  0.73869295  0.87601252  0.77882668    -0.02100
C1981       C  0.73019630  0.89479788  0.75152371     0.02900
C1982       C  0.73232654  0.87907899  0.72248687    -0.05000
C1983       C  0.74587875  0.84526660  0.72109011    -0.02100
C1984       C  0.75390865  0.82635250  0.74834713     0.02900
C1985       C  0.73284524  0.89109274  0.80841392     0.37500
C1986       C  0.75398184  0.83088958  0.69173679     0.37500
C1987       C  0.76155987  0.78992886  0.74674681     0.35900
C1988       C  0.72348504  0.93134218  0.75303371     0.35900
N1989       N  0.76636455  0.76064444  0.74558504    -0.38900
N1990       N  0.71972826  0.96075320  0.75403449    -0.38900
N1991       N  0.76181038  0.82045408  0.66819154    -0.38300
N1992       N  0.72717710  0.90224018  0.83223247    -0.38300
C1993       C  0.83744973  0.72543164  0.69522619    -0.05000
C1994       C  0.84339766  0.76037520  0.70222335    -0.02100
C1995       C  0.85187367  0.77073051  0.73280405     0.02900
C1996       C  0.85492388  0.74598209  0.75669500    -0.05000
C1997       C  0.85437481  0.71079788  0.74886035    -0.02100
C1998       C  0.84561459  0.70059024  0.71818010     0.02900
C1999       C  0.84228920  0.78572544  0.67773042     0.37500
C2000       C  0.86520723  0.68515652  0.77195928     0.37500
C2001       C  0.84887381  0.66486436  0.70971662     0.35900
C2002       C  0.85644094  0.80699452  0.73921225     0.35900
N2003       N  0.85263068  0.63645081  0.70302785    -0.38900
N2004       N  0.86018244  0.83598755  0.74385595    -0.38900
N2005       N  0.87399959  0.66471618  0.79036262    -0.38300
N2006       N  0.84235597  0.80583457  0.65820076    -0.38300
C2007       C  0.84918115  0.72402587  0.50821382    -0.05000
C2008       C  0.81241534  0.73176771  0.99593918    -0.02100
C2009       C  0.80623930  0.74371982  0.96559742     0.02900
C2010       C  0.83653846  0.74557688  0.94613158    -0.05000
C2011       C  0.87322090  0.73488203  0.95810436    -0.02100
C2012       C  0.87947658  0.72512741  0.48923592     0.02900
C2013       C  0.78029791  0.72553117  0.51402363     0.37500
C2014       C  0.90485882  0.73273968  0.93881391     0.37500
C2015       C  0.91720163  0.71654212  0.50191583     0.35900
C2016       C  0.76804650  0.75279045  0.95468274     0.35900
N2017       N  0.94718116  0.70969576  0.51217466    -0.38900
N2018       N  0.73738782  0.76015892  0.94671494    -0.38900
N2019       N  0.93027181  0.72999392  0.92372431    -0.38300
N2020       N  0.75440080  0.72046441  0.52802381    -0.38300
C2021       C  0.76093524  0.95569950  0.89284119    -0.05000
C2022       C  0.77994136  0.95347758  0.86547877    -0.02100
C2023       C  0.80377470  0.92516550  0.86032344     0.02900
C2024       C  0.80781800  0.89822429  0.88228069    -0.05000
C2025       C  0.79438537  0.90409093  0.91182395    -0.02100
C2026       C  0.77139737  0.93300426  0.91708860     0.02900
C2027       C  0.77325991  0.97925274  0.84168667     0.37500
C2028       C  0.80397542  0.88036412  0.93680194     0.37500
C2029       C  0.75992751  0.94037842  0.94765641     0.35900
C2030       C  0.82120194  0.92282198  0.83122167     0.35900
N2031       N  0.75191945  0.94685951  0.97229174    -0.38900
N2032       N  0.83491464  0.92104324  0.80792415    -0.38900
N2033       N  0.81171210  0.86144047  0.95673327    -0.38300
N2034       N  0.76832438  0.99965927  0.82253574    -0.38300
C2035       C  0.73387340  0.70181713  0.85162199    -0.05000
C2036       C  0.70202511  0.70420732  0.86946741    -0.02100
C2037       C  0.67933959  0.67494958  0.87426908     0.02900
C2038       C  0.68812026  0.64281317  0.86128198    -0.05000
C2039       C  0.71721907  0.64225015  0.83997131    -0.02100
C2040       C  0.73882148  0.67168720  0.83482958     0.02900
C2041       C  0.69197505  0.73683509  0.88248608     0.37500
C2042       C  0.72715125  0.61142975  0.82365325     0.37500
C2043       C  0.76509949  0.67157622  0.81074726     0.35900
C2044       C  0.64669336  0.67830211  0.89222909     0.35900
N2045       N  0.78517965  0.67156160  0.79096016    -0.38900
N2046       N  0.62035641  0.68119668  0.90624816    -0.38900
N2047       N  0.73605960  0.58730279  0.81047440    -0.38300
N2048       N  0.68319549  0.76299375  0.89229311    -0.38300
loop_ 
_geom_bond_atom_site_label_1 
_geom_bond_atom_site_label_2 
_geom_bond_distance 
_geom_bond_site_symmetry_2 
_ccdc_geom_bond_type 
O1           C16   1.253       .  A
O1           Al9   1.893       .  S
C2           O12   1.261       .  A
C2            O3   1.265       .  A
C2          C460   1.489       .  S
O3           Al5   1.933       .  S
O4            C6   1.257       .  A
O4           Al5   1.855       .  S
Al5          O13   1.903       .  S
Al5          O15   1.928       .  S
Al5          O14   1.781       .  S
C6           O19   1.277       .  A
C6          C443   1.483       .  S
O7           C17   1.254       .  A
O7           Al9   1.903       .  S
O8           C21   1.258       .  A
O8          Al18   1.859       .  S
Al9          O22   1.942       .  S
Al9          O19   1.967       .  S
Al9          O14   1.779       .  S
O10          C17   1.263       .  A
O10         Al18   1.930       .  S
O11          C20   1.271       .  A
O11         Al18   1.955       .  S
O12         Al18   1.888       .  S
O13          C20   1.265       .  A
O14         Al18   1.778       .  S
O15          C16   1.260       .  A
C16         C488   1.510       .  S
C17         C499   1.507       .  S
C20         C429   1.488       .  S
C21          O22   1.276       .  A
C21         C474   1.499       .  S
O23          C38   1.274       .  A
O23         Al31   1.949       .  S
C24          O34   1.267       .  A
C24          O25   1.261       .  A
C24         C415   1.496       .  S
O25         Al27   1.890       .  S
O26          C28   1.264       .  A
O26         Al27   1.933       .  S
Al27         O35   1.957       .  S
Al27         O37   1.856       .  S
Al27         O36   1.774       .  S
C28          O41   1.256       .  A
C28        C1411   1.497       .  S
O29          C39   1.276       .  A
O29         Al31   1.969       .  S
O30          C43   1.264       .  A
O30         Al40   1.945       .  S
Al31         O44   1.897       .  S
Al31         O41   1.900       .  S
Al31         O36   1.779       .  S
O32          C39   1.256       .  A
O32         Al40   1.860       .  S
O33          C42   1.265       .  A
O33         Al40   1.904       .  S
O34         Al40   1.940       .  S
O35          C42   1.272       .  A
O36         Al40   1.779       .  S
O37          C38   1.259       .  A
C38         C401   1.487       .  S
C39         C446   1.485       .  S
C42         C359   1.498       .  S
C43          O44   1.257       .  A
C43         C376   1.510       .  S
O45          C60   1.243       .  A
O45         Al53   1.859       .  S
C46          O47   1.276       .  A
C46        O1080   1.259   1_545  A
C46        C1428   1.500   1_545  S
O47         Al49   1.959       .  S
O48          C50   1.250       .  A
O48         Al49   1.834       .  S
Al49         O57   1.914       .  S
Al49         O59   2.004       .  S
Al49         O58   1.779       .  S
C50          O63   1.284       .  A
C50         C345   1.495       .  S
O51        C1085   1.255   1_545  A
O51         Al53   1.900       .  S
O52          C65   1.255   1_565  A
O52         Al62   1.845       .  S
Al53         O66   1.974       .  S
Al53         O63   2.004       .  S
Al53         O58   1.757       .  S
O54          C61   1.266       .  A
O54       Al1086   1.950       .  S
O55          C64   1.272       .  A
O55         Al62   1.950   1_545  S
O56        C1070   1.259       .  A
O56       Al1086   1.859       .  S
O57          C64   1.270       .  A
O58         Al62   1.766   1_545  S
O59          C60   1.273       .  A
C60         C502   1.526       .  S
C61        O1075   1.255       .  A
C61         C485   1.494       .  S
Al62       O1078   1.950       .  S
Al62       O1080   1.859       .  S
C64         C334   1.501       .  S
C65          O66   1.279       .  A
C65         C418   1.483   1_545  S
O67          C82   1.279       .  A
O67         Al75   1.968       .  S
C68          O78   1.273       .  A
C68          O69   1.261       .  A
C68         C471   1.474       .  S
O69         Al71   1.862       .  S
O70          C72   1.264       .  A
O70         Al71   1.946       .  S
Al71         O79   1.940       .  S
Al71         O81   1.843       .  S
Al71         O80   1.775       .  S
C72          O85   1.257       .  A
C72         C373   1.497       .  S
O73          C83   1.284       .  A
O73         Al75   2.004       .  S
O74          C87   1.270       .  A
O74         Al84   1.979       .  S
Al75         O88   1.862       .  S
Al75         O85   1.902       .  S
Al75         O80   1.761       .  S
O76          C83   1.249       .  A
O76         Al84   1.833       .  S
O77          C86   1.265       .  A
O77         Al84   1.901       .  S
O78         Al84   1.947       .  S
O79          C86   1.269       .  A
O80         Al84   1.778       .  S
O81          C82   1.255       .  A
C82         C457   1.474       .  S
C83         C348   1.500       .  S
C86         C317   1.488       .  S
C87          O88   1.246       .  A
C87         C390   1.522       .  S
O89         C104   1.252       .  A
O89         Al97   1.873       .  S
C90         O100   1.261       .  A
C90          O91   1.273       .  A
C90         C261   1.491       .  S
O91         Al93   1.955       .  S
O92          C94   1.249       .  A
O92         Al93   1.834       .  S
Al93        O101   1.895       .  S
Al93        O103   1.945       .  S
Al93        O102   1.785       .  S
C94         O107   1.274       .  A
C94         C247   1.478       .  S
O95         C105   1.256       .  A
O95         Al97   1.903       .  S
O96         C109   1.260       .  A
O96        Al106   1.868       .  S
Al97        O110   1.955       .  S
Al97        O107   1.971       .  S
Al97        O102   1.773       .  S
O98         C105   1.265       .  A
O98        Al106   1.946       .  S
O99         C108   1.268       .  A
O99        Al106   1.951       .  S
O100       Al106   1.871       .  S
O101        C108   1.258       .  A
O102       Al106   1.777       .  S
O103        C104   1.266       .  A
C104        C289   1.510       .  S
C105        C303   1.506       .  S
C108        C432   1.487       .  S
C109        O110   1.277       .  A
C109        C278   1.509       .  S
O111        C126   1.286       .  A
O111       Al119   1.975       .  S
C112        O122   1.278       .  A
C112        O113   1.264       .  A
C112        C233   1.492       .  S
O113       Al115   1.867       .  S
O114        C116   1.256       .  A
O114       Al115   1.927       .  S
Al115       O123   1.932       .  S
Al115       O125   1.869       .  S
Al115       O124   1.788       .  S
C116        O129   1.247       .  A
C116       C1232   1.501       .  S
O117        C127   1.271       .  A
O117       Al119   1.957       .  S
O118        C131   1.263       .  A
O118       Al128   1.934       .  S
Al119       O132   1.858       .  S
Al119       O129   1.895       .  S
Al119       O124   1.773       .  S
O120        C127   1.250       .  A
O120       Al128   1.847       .  S
O121        C130   1.256       .  A
O121       Al128   1.904       .  S
O122       Al128   1.962       .  S
O123        C130   1.261       .  A
O124       Al128   1.789       .  S
O125        C126   1.265       .  A
C126        C219   1.515       .  S
C127        C250   1.483       .  S
C130        C362   1.500       .  S
C131        O132   1.250       .  A
C131        C194   1.506       .  S
O133        C148   1.277       .  A
O133       Al141   1.961       .  S
C134        O144   1.272       .  A
C134        O135   1.262       .  A
C134        C275   1.487       .  S
O135       Al137   1.875       .  S
O136        C138   1.263       .  A
O136       Al137   1.934       .  S
Al137       O145   1.939       .  S
Al137       O147   1.860       .  S
Al137       O146   1.776       .  S
C138        O151   1.256       .  A
C138        C191   1.495       .  S
O139        C149   1.280       .  A
O139       Al141   1.992       .  S
O140        C153   1.268       .  A
O140       Al150   1.965       .  S
Al141       O154   1.863       .  S
Al141       O151   1.893       .  S
Al141       O146   1.763       .  S
O142        C149   1.248       .  A
O142       Al150   1.823       .  S
O143        C152   1.263       .  A
O143       Al150   1.893       .  S
O144       Al150   1.943       .  S
O145        C152   1.270       .  A
O146       Al150   1.779       .  S
O147        C148   1.259       .  A
C148        C264   1.475       .  S
C149        C177   1.490       .  S
C152        C320   1.496       .  S
C153        O154   1.247       .  A
C153        C205   1.515       .  S
O155        C170   1.247       .  A
O155       Al163   1.852       .  S
C156        O157   1.280       .  A
C156       O1190   1.261   1_545  A
C156       C1246   1.495   1_545  S
O157       Al159   1.975       .  S
O158        C160   1.246       .  A
O158       Al159   1.824       .  S
Al159       O167   1.908       .  S
Al159       O169   1.981       .  S
Al159       O168   1.779       .  S
C160        O173   1.278       .  A
C160        C180   1.497       .  S
O161       C1195   1.253   1_545  A
O161       Al163   1.891       .  S
O162        C175   1.261       .  A
O162       Al172   1.856       .  S
Al163       O176   1.972       .  S
Al163       O173   1.982       .  S
Al163       O168   1.769       .  S
O164        C171   1.260       .  A
O164      Al1196   1.930       .  S
O165        C174   1.267   1_565  A
O165       Al172   1.943       .  S
O166       C1180   1.261       .  A
O166      Al1196   1.870       .  S
O167        C174   1.261       .  A
O168       Al172   1.782   1_545  S
O169        C170   1.273       .  A
C170        C306   1.524       .  S
C171       O1185   1.253       .  A
C171        C292   1.494       .  S
Al172      O1188   1.930       .  S
Al172      O1190   1.870       .  S
C174        C331   1.510       .  S
C175        O176   1.281   1_565  A
C175        C236   1.476       .  S
C177        C178   1.426       .  A
C177        C182   1.404       .  A
C178        C179   1.411       .  A
C178        C183   1.453       .  S
C179        C180   1.406       .  A
C179        C186   1.451       .  S
C180        C181   1.430       .  A
C181        C182   1.414       .  A
C181        C184   1.452       .  S
C182        C185   1.452       .  S
C183        N190   1.157       .  T
C184        N189   1.157       .  T
C185        N187   1.158       .  T
C186        N188   1.158       .  T
C191        C192   1.418       .  A
C191        C196   1.411       .  A
C192        C193   1.418       .  A
C192        C197   1.451       .  S
C193        C194   1.414       .  A
C193        C200   1.450       .  S
C194        C195   1.420       .  A
C195        C196   1.412       .  A
C195        C198   1.452       .  S
C196        C199   1.451       .  S
C197        N204   1.157       .  T
C198        N203   1.158       .  T
C199        N201   1.157       .  T
C200        N202   1.157       .  T
C205        C206   1.417       .  A
C205        C210   1.429       .  A
C206        C207   1.420       .  A
C206        C211   1.449       .  S
C207        C208   1.419       .  A
C207       C1238   1.450   1_545  S
C208       C1140   1.501   1_545  S
C208        C209   1.408       .  A
C209        C210   1.413       .  A
C209        C212   1.450       .  S
C210        C213   1.454       .  S
C211        N218   1.157       .  T
C212        N217   1.156       .  T
C213        N215   1.158       .  T
C214       C1231   1.450       .  S
C214        N216   1.157       .  T
C219        C220   1.417       .  A
C219        C224   1.434       .  A
C220        C221   1.412       .  A
C220        C225   1.452       .  S
C221        C222   1.416       .  A
C221        C228   1.448       .  S
C222       C1180   1.495       .  S
C222        C223   1.405       .  A
C223        C224   1.419       .  A
C223       C1250   1.451       .  S
C224        C227   1.451       .  S
C225        N232   1.157       .  T
C226       C1247   1.451   1_545  S
C226        N231   1.157       .  T
C227        N229   1.157       .  T
C228        N230   1.155       .  T
C233       C1258   1.417   1_554  A
C233        C750   1.417   1_554  A
C234       C1257   1.417   1_556  A
C234        C747   1.409   1_565  A
C234        C239   1.452   1_566  S
C235        C236   1.408   1_545  A
C235        C746   1.409   1_545  A
C235        C242   1.450       .  S
C236       C1261   1.412       .  A
C237        C238   1.412       .  A
C237       C1260   1.412       .  A
C237        C240   1.453       .  S
C238        C745   1.417       .  A
C238        C241   1.449       .  S
C239        N246   1.157       .  T
C240        N245   1.157       .  T
C241        N243   1.157       .  T
C242        N244   1.157       .  T
C247        C248   1.413       .  A
C247        C252   1.409       .  A
C248        C761   1.415       .  A
C248        C253   1.446       .  S
C249        C250   1.411   1_556  A
C249        C760   1.415       .  A
C249        C256   1.452   1_556  S
C250        C251   1.414       .  A
C251        C764   1.411   1_554  A
C251        C254   1.445       .  S
C252        C763   1.411       .  A
C252        C255   1.453       .  S
C253        N260   1.156       .  T
C254        N259   1.155       .  T
C255        N257   1.157       .  T
C256        N258   1.157       .  T
C261        C262   1.417       .  A
C261        C778   1.418       .  A
C262        C775   1.410       .  A
C262        C267   1.452       .  S
C263        C264   1.408       .  A
C263        C774   1.410   1_554  A
C263        C270   1.451       .  S
C264        C265   1.410       .  A
C265        C266   1.411       .  A
C265        C268   1.452       .  S
C266        C773   1.418   1_554  A
C266        C269   1.450       .  S
C267        N274   1.157       .  T
C268        N273   1.157       .  T
C269        N271   1.157       .  T
C270        N272   1.157       .  T
C275        C276   1.413       .  A
C275        C280   1.407       .  A
C276        C277   1.407       .  A
C276        C281   1.451       .  S
C277        C278   1.419       .  A
C277        C284   1.451       .  S
C278        C279   1.431       .  A
C279        C280   1.414       .  A
C279        C282   1.453       .  S
C280        C283   1.452       .  S
C281        N288   1.156       .  T
C282        N287   1.158       .  T
C283        N285   1.158       .  T
C284        N286   1.157       .  T
C289        C290   1.416       .  A
C289        C294   1.422       .  A
C290        C291   1.418       .  A
C290        C295   1.450       .  S
C291        C292   1.418       .  A
C291        C298   1.450       .  S
C292        C293   1.409       .  A
C293        C294   1.411       .  A
C293        C296   1.451       .  S
C294        C297   1.451       .  S
C295        N302   1.157       .  T
C296        N301   1.157       .  T
C297        N299   1.157       .  T
C298        N300   1.157       .  T
C303        C304   1.420       .  A
C303        C308   1.406       .  A
C304        C305   1.424       .  A
C304        C309   1.449       .  S
C305        C306   1.417       .  A
C305        C312   1.449       .  S
C306        C307   1.433       .  A
C307        C308   1.416       .  A
C307        C310   1.453       .  S
C308        C311   1.452       .  S
C309        N316   1.157       .  T
C310        N315   1.158       .  T
C311        N313   1.157       .  T
C312        N314   1.157       .  T
C317        C318   1.414       .  A
C317        C322   1.412       .  A
C318        C319   1.414   1_655  A
C318        C323   1.452       .  S
C319        C320   1.418       .  A
C319        C326   1.451       .  S
C320        C321   1.419       .  A
C321        C322   1.411   1_455  A
C321        C324   1.453       .  S
C322        C325   1.452       .  S
C323        N330   1.158       .  T
C324        N329   1.158       .  T
C325        N327   1.157       .  T
C326        N328   1.157       .  T
C331        C332   1.420       .  A
C331        C336   1.421       .  A
C332        C333   1.419       .  A
C332        C337   1.451       .  S
C333        C334   1.415       .  A
C333        C340   1.452       .  S
C334        C335   1.414       .  A
C335        C336   1.417       .  A
C335       C1362   1.451   1_545  S
C336       C1363   1.452   1_545  S
C337        N344   1.157       .  T
C338       C1359   1.451       .  S
C338        N343   1.157       .  T
C339       C1360   1.452       .  S
C339        N341   1.157       .  T
C340        N342   1.157       .  T
C345        C346   1.404       .  A
C345        C350   1.427       .  A
C346        C347   1.414       .  A
C346        C351   1.452       .  S
C347        C860   1.431       .  A
C347        C354   1.452       .  S
C348        C349   1.406       .  A
C348        C859   1.431       .  A
C349        C862   1.415   1_554  A
C349        C352   1.451       .  S
C350        C861   1.415       .  A
C350        C353   1.451       .  S
C351        N358   1.158       .  T
C352        N357   1.158       .  T
C353        N355   1.157       .  T
C354        N356   1.157       .  T
C359        C360   1.416       .  A
C359        C364   1.414       .  A
C360        C361   1.417       .  A
C360        C365   1.451       .  S
C361        C362   1.416       .  A
C361        C368   1.451       .  S
C362        C363   1.416       .  A
C363        C364   1.416       .  A
C363        C366   1.452       .  S
C364        C367   1.449       .  S
C365        N372   1.157       .  T
C366        N371   1.157       .  T
C367        N369   1.156       .  T
C368        N370   1.157       .  T
C373        C374   1.419       .  A
C373        C378   1.410       .  A
C374        C375   1.421       .  A
C374        C379   1.451       .  S
C375        C376   1.418       .  A
C375        C382   1.451       .  S
C376        C377   1.411       .  A
C377        C378   1.413       .  A
C377        C380   1.446       .  S
C378        C381   1.447       .  S
C379        N386   1.157       .  T
C380        N385   1.157       .  T
C381        N383   1.157       .  T
C382        N384   1.157       .  T
C387       C1052   1.497   1_545  S
C387        C388   1.402       .  A
C387        C392   1.416       .  A
C388        C389   1.413       .  A
C388        C393   1.451       .  S
C389        C390   1.434       .  A
C389        C396   1.452       .  S
C390        C391   1.420       .  A
C391        C392   1.422       .  A
C391        C394   1.449       .  S
C392        C395   1.450   1_545  S
C393        N400   1.156       .  T
C394        N399   1.157       .  T
C395       N1421   1.158       .  T
C396        N398   1.158       .  T
N397       C1419   1.158       .  T
C401        C402   1.405       .  A
C401        C406   1.417       .  A
C402        C915   1.407   1_554  A
C402        C407   1.449       .  S
C403        C404   1.426       .  A
C403        C914   1.407       .  A
C403        C410   1.453       .  S
C404       C1070   1.500       .  S
C404       C1941   1.420       .  A
C405       C1940   1.420   1_544  A
C405       C1430   1.410       .  A
C405        C920   1.452       .  S
C406       C1429   1.410       .  A
C406        C409   1.455       .  S
C407        N414   1.157       .  T
C408        C917   1.452       .  S
C408        N413   1.158       .  T
C409       N1435   1.157       .  T
C410        N412   1.157       .  T
N411       C1433   1.157       .  T
C415        C416   1.419       .  A
C415       C1444   1.418       .  A
C416        C417   1.409       .  A
C416        C421   1.452       .  S
C417       C1442   1.416       .  A
C417        C424   1.454       .  S
C418        C419   1.410   1_565  A
C418       C1441   1.416       .  A
C419        C420   1.414       .  A
C419        C422   1.449       .  S
C420       C1439   1.418   1_545  A
C420        C423   1.452       .  S
C421        N428   1.158       .  T
C422        N427   1.157       .  T
C423        N425   1.157       .  T
C424        N426   1.157       .  T
C429        C430   1.414       .  A
C429        C434   1.412       .  A
C430        C431   1.414   1_655  A
C430        C435   1.451       .  S
C431        C432   1.410       .  A
C431        C438   1.449       .  S
C432        C433   1.414       .  A
C433        C434   1.415   1_455  A
C433        C436   1.450       .  S
C434        C437   1.451       .  S
C435        N442   1.157       .  T
C436        N441   1.157       .  T
C437        N439   1.157       .  T
C438        N440   1.157       .  T
C443        C444   1.407       .  A
C443        C448   1.413       .  A
C444        C445   1.411       .  A
C444        C449   1.445       .  S
C445        C446   1.413       .  A
C445        C452   1.448       .  S
C446        C447   1.406       .  A
C447        C448   1.410       .  A
C447        C450   1.444       .  S
C448        C451   1.450       .  S
C449        N456   1.156       .  T
C450        N455   1.155       .  T
C451        N453   1.157       .  T
C452        N454   1.157       .  T
C457        C458   1.413       .  A
C457        C462   1.407       .  A
C458        C459   1.407       .  A
C458        C463   1.453       .  S
C459        C460   1.418       .  A
C459        C466   1.452       .  S
C460        C461   1.416       .  A
C461        C462   1.411       .  A
C461        C464   1.451       .  S
C462        C465   1.450       .  S
C463        N470   1.157       .  T
C464        N469   1.157       .  T
C465        N467   1.157       .  T
C466        N468   1.158       .  T
C471        C476   1.403   1_554  A
C471        C984   1.410   1_554  A
C472        C473   1.404       .  A
C472        C983   1.409       .  A
C472        C989   1.453       .  S
C473        C474   1.418       .  A
C473        C480   1.450       .  S
C474        C475   1.431       .  A
C475        C988   1.411       .  A
C475        C478   1.451       .  S
C476        C987   1.411       .  A
C476        C479   1.453   1_556  S
C477        C984   1.453   1_554  S
C477        N484   1.156       .  T
C478        N483   1.157       .  T
C479        N481   1.157       .  T
C480        N482   1.156       .  T
C485        C486   1.412       .  A
C485        C490   1.407       .  A
C486        C487   1.417       .  A
C486        C491   1.451       .  S
C487        C488   1.421       .  A
C487        C494   1.451       .  S
C488        C489   1.421       .  A
C489        C490   1.418       .  A
C489        C492   1.450       .  S
C490        C493   1.448       .  S
C491        N498   1.157       .  T
C492        N497   1.158       .  T
C493        N495   1.157       .  T
C494        N496   1.158       .  T
C499        C500   1.419       .  A
C499        C504   1.403       .  A
C500        C501   1.426       .  A
C500        C505   1.448       .  S
C501        C502   1.419       .  A
C501        C508   1.449       .  S
C502        C503   1.436       .  A
C503        C504   1.413       .  A
C503        C506   1.453       .  S
C504        C507   1.452       .  S
C505        N512   1.157       .  T
C506        N511   1.158       .  T
C507        N509   1.156       .  T
C508        N510   1.157       .  T
O513        C528   1.253       .  A
O513       Al521   1.893       .  S
C514        O524   1.261       .  A
C514        O515   1.265       .  A
C514        C972   1.489       .  S
O515       Al517   1.933       .  S
O516        C518   1.257       .  A
O516       Al517   1.855       .  S
Al517       O525   1.903       .  S
Al517       O527   1.928       .  S
Al517       O526   1.781       .  S
C518        O531   1.277       .  A
C518        C955   1.483       .  S
O519        C529   1.254       .  A
O519       Al521   1.903       .  S
O520        C533   1.258       .  A
O520       Al530   1.859       .  S
Al521       O534   1.942       .  S
Al521       O531   1.967       .  S
Al521       O526   1.779       .  S
O522        C529   1.263       .  A
O522       Al530   1.930       .  S
O523        C532   1.271       .  A
O523       Al530   1.955       .  S
O524       Al530   1.888       .  S
O525        C532   1.265       .  A
O526       Al530   1.778       .  S
O527        C528   1.260       .  A
C528       C1000   1.510       .  S
C529       C1011   1.507       .  S
C532        C941   1.488       .  S
C533        O534   1.276       .  A
C533        C986   1.499       .  S
O535        C550   1.274       .  A
O535       Al543   1.949       .  S
C536        O546   1.267       .  A
C536        O537   1.261       .  A
C536        C927   1.496       .  S
O537       Al539   1.890       .  S
O538        C540   1.264       .  A
O538       Al539   1.933       .  S
Al539       O547   1.957       .  S
Al539       O549   1.856       .  S
Al539       O548   1.774       .  S
C540        O553   1.256       .  A
C540       C1923   1.497       .  S
O541        C551   1.276       .  A
O541       Al543   1.969       .  S
O542        C555   1.264       .  A
O542       Al552   1.945       .  S
Al543       O556   1.897       .  S
Al543       O553   1.900       .  S
Al543       O548   1.779       .  S
O544        C551   1.256       .  A
O544       Al552   1.860       .  S
O545        C554   1.265       .  A
O545       Al552   1.904       .  S
O546       Al552   1.940       .  S
O547        C554   1.272       .  A
O548       Al552   1.779       .  S
O549        C550   1.259       .  A
C550        C913   1.487       .  S
C551        C958   1.485       .  S
C554        C871   1.498       .  S
C555        O556   1.257       .  A
C555        C888   1.510       .  S
O557        C572   1.243       .  A
O557       Al565   1.859       .  S
C558       O1592   1.259   1_545  A
C558        O559   1.276       .  A
C558       C1940   1.500   1_545  S
O559       Al561   1.959       .  S
O560        C562   1.250       .  A
O560       Al561   1.834       .  S
Al561       O569   1.914       .  S
Al561       O571   2.004       .  S
Al561       O570   1.779       .  S
C562        O575   1.284       .  A
C562        C857   1.495       .  S
O563       C1597   1.255   1_545  A
O563       Al565   1.900       .  S
O564        C577   1.255   1_565  A
O564       Al574   1.845       .  S
Al565       O578   1.974       .  S
Al565       O575   2.004       .  S
Al565       O570   1.757       .  S
O566        C573   1.266       .  A
O566      Al1598   1.950       .  S
O567        C576   1.272       .  A
O567       Al574   1.950   1_545  S
O568       C1582   1.259       .  A
O568      Al1598   1.859       .  S
O569        C576   1.270       .  A
O570       Al574   1.766   1_545  S
O571        C572   1.273       .  A
C572       C1014   1.526       .  S
C573       O1587   1.255       .  A
C573        C997   1.494       .  S
Al574      O1590   1.950       .  S
Al574      O1592   1.859       .  S
C576        C846   1.501       .  S
C577        O578   1.279       .  A
C577        C930   1.483   1_545  S
O579        C594   1.279       .  A
O579       Al587   1.968       .  S
C580        O590   1.273       .  A
C580        O581   1.261       .  A
C580        C983   1.473       .  S
O581       Al583   1.862       .  S
O582        C584   1.264       .  A
O582       Al583   1.946       .  S
Al583       O591   1.940       .  S
Al583       O593   1.843       .  S
Al583       O592   1.775       .  S
C584        O597   1.257       .  A
C584        C885   1.497       .  S
O585        C595   1.284       .  A
O585       Al587   2.004       .  S
O586        C599   1.270       .  A
O586       Al596   1.979       .  S
Al587       O600   1.863       .  S
Al587       O597   1.902       .  S
Al587       O592   1.761       .  S
O588        C595   1.249       .  A
O588       Al596   1.833       .  S
O589        C598   1.265       .  A
O589       Al596   1.901       .  S
O590       Al596   1.947       .  S
O591        C598   1.269       .  A
O592       Al596   1.778       .  S
O593        C594   1.255       .  A
C594        C969   1.474       .  S
C595        C860   1.500       .  S
C598        C829   1.488       .  S
C599        O600   1.246       .  A
C599        C902   1.522       .  S
O601        C616   1.252       .  A
O601       Al609   1.873       .  S
C602        O612   1.261       .  A
C602        O603   1.273       .  A
C602        C773   1.491       .  S
O603       Al605   1.955       .  S
O604        C606   1.249       .  A
O604       Al605   1.834       .  S
Al605       O613   1.895       .  S
Al605       O615   1.945       .  S
Al605       O614   1.785       .  S
C606        O619   1.274       .  A
C606        C759   1.478       .  S
O607        C617   1.256       .  A
O607       Al609   1.903       .  S
O608        C621   1.260       .  A
O608       Al618   1.868       .  S
Al609       O622   1.955       .  S
Al609       O619   1.971       .  S
Al609       O614   1.773       .  S
O610        C617   1.265       .  A
O610       Al618   1.946       .  S
O611        C620   1.268       .  A
O611       Al618   1.951       .  S
O612       Al618   1.871       .  S
O613        C620   1.258       .  A
O614       Al618   1.777       .  S
O615        C616   1.266       .  A
C616        C801   1.510       .  S
C617        C815   1.506       .  S
C620        C944   1.487       .  S
C621        O622   1.277       .  A
C621        C790   1.509       .  S
O623        C638   1.286       .  A
O623       Al631   1.975       .  S
C624        O634   1.278       .  A
C624        O625   1.264       .  A
C624        C745   1.492       .  S
O625       Al627   1.867       .  S
O626        C628   1.256       .  A
O626       Al627   1.927       .  S
Al627       O635   1.932       .  S
Al627       O637   1.869       .  S
Al627       O636   1.788       .  S
C628        O641   1.247       .  A
C628       C1744   1.501       .  S
O629        C639   1.271       .  A
O629       Al631   1.957       .  S
O630        C643   1.263       .  A
O630       Al640   1.934       .  S
Al631       O644   1.858       .  S
Al631       O641   1.895       .  S
Al631       O636   1.773       .  S
O632        C639   1.250       .  A
O632       Al640   1.847       .  S
O633        C642   1.256       .  A
O633       Al640   1.904       .  S
O634       Al640   1.961       .  S
O635        C642   1.261       .  A
O636       Al640   1.789       .  S
O637        C638   1.265       .  A
C638        C731   1.515       .  S
C639        C762   1.483       .  S
C642        C874   1.500       .  S
C643        O644   1.250       .  A
C643        C706   1.506       .  S
O645        C660   1.277       .  A
O645       Al653   1.961       .  S
C646        O656   1.272       .  A
C646        O647   1.262       .  A
C646        C787   1.487       .  S
O647       Al649   1.875       .  S
O648        C650   1.263       .  A
O648       Al649   1.934       .  S
Al649       O657   1.939       .  S
Al649       O659   1.860       .  S
Al649       O658   1.776       .  S
C650        O663   1.256       .  A
C650        C703   1.495       .  S
O651        C661   1.280       .  A
O651       Al653   1.992       .  S
O652        C665   1.268       .  A
O652       Al662   1.965       .  S
Al653       O666   1.864       .  S
Al653       O663   1.893       .  S
Al653       O658   1.763       .  S
O654        C661   1.248       .  A
O654       Al662   1.823       .  S
O655        C664   1.263       .  A
O655       Al662   1.893       .  S
O656       Al662   1.943       .  S
O657        C664   1.270       .  A
O658       Al662   1.778       .  S
O659        C660   1.259       .  A
C660        C776   1.475       .  S
C661        C689   1.490       .  S
C664        C832   1.496       .  S
C665        O666   1.247       .  A
C665        C717   1.515       .  S
O667        C682   1.247       .  A
O667       Al675   1.852       .  S
C668       O1702   1.261   1_545  A
C668        O669   1.280       .  A
C668       C1758   1.495   1_545  S
O669       Al671   1.975       .  S
O670        C672   1.246       .  A
O670       Al671   1.824       .  S
Al671       O679   1.908       .  S
Al671       O681   1.982       .  S
Al671       O680   1.779       .  S
C672        O685   1.278       .  A
C672        C692   1.497       .  S
O673       C1707   1.253   1_545  A
O673       Al675   1.891       .  S
O674        C687   1.261       .  A
O674       Al684   1.856       .  S
Al675       O688   1.972       .  S
Al675       O685   1.982       .  S
Al675       O680   1.769       .  S
O676        C683   1.260       .  A
O676      Al1708   1.930       .  S
O677        C686   1.267   1_565  A
O677       Al684   1.943       .  S
O678       C1692   1.261       .  A
O678      Al1708   1.870       .  S
O679        C686   1.262       .  A
O680       Al684   1.782   1_545  S
O681        C682   1.273       .  A
C682        C818   1.524       .  S
C683       O1697   1.253       .  A
C683        C804   1.494       .  S
Al684      O1700   1.930       .  S
Al684      O1702   1.870       .  S
C686        C843   1.510       .  S
C687        O688   1.281   1_565  A
C687        C748   1.476       .  S
C689        C690   1.426       .  A
C689        C694   1.404       .  A
C690        C691   1.411       .  A
C690        C695   1.453       .  S
C691        C692   1.406       .  A
C691        C698   1.451       .  S
C692        C693   1.430       .  A
C693        C694   1.414       .  A
C693        C696   1.452       .  S
C694        C697   1.452       .  S
C695        N702   1.157       .  T
C696        N701   1.157       .  T
C697        N699   1.158       .  T
C698        N700   1.158       .  T
C703        C704   1.418       .  A
C703        C708   1.411       .  A
C704        C705   1.418       .  A
C704        C709   1.451       .  S
C705        C706   1.414       .  A
C705        C712   1.450       .  S
C706        C707   1.420       .  A
C707        C708   1.412       .  A
C707        C710   1.452       .  S
C708        C711   1.451       .  S
C709        N716   1.157       .  T
C710        N715   1.158       .  T
C711        N713   1.157       .  T
C712        N714   1.157       .  T
C717        C718   1.417       .  A
C717        C722   1.429       .  A
C718        C719   1.420       .  A
C718        C723   1.449       .  S
C719        C720   1.419       .  A
C719       C1750   1.450   1_545  S
C720       C1652   1.501   1_545  S
C720        C721   1.408       .  A
C721        C722   1.413       .  A
C721        C724   1.450       .  S
C722        C725   1.454       .  S
C723        N730   1.157       .  T
C724        N729   1.156       .  T
C725        N727   1.158       .  T
C726       C1743   1.450       .  S
C726        N728   1.157       .  T
C731        C732   1.417       .  A
C731        C736   1.434       .  A
C732        C733   1.412       .  A
C732        C737   1.452       .  S
C733        C734   1.416       .  A
C733        C740   1.448       .  S
C734       C1692   1.495       .  S
C734        C735   1.405       .  A
C735        C736   1.419       .  A
C735       C1762   1.451       .  S
C736        C739   1.451       .  S
C737        N744   1.157       .  T
C738       C1759   1.451   1_545  S
C738        N743   1.157       .  T
C739        N741   1.157       .  T
C740        N742   1.155       .  T
C745       C1770   1.417       .  A
C746       C1769   1.417       .  A
C746        C751   1.452   1_565  S
C747        C748   1.408   1_545  A
C747        C754   1.450       .  S
C748       C1773   1.412       .  A
C749       C1772   1.412       .  A
C749        C750   1.412       .  A
C749        C752   1.453       .  S
C750        C753   1.449       .  S
C751        N758   1.157       .  T
C752        N757   1.157       .  T
C753        N755   1.157       .  T
C754        N756   1.157       .  T
C759        C760   1.413       .  A
C759        C764   1.409       .  A
C760        C765   1.446       .  S
C761        C762   1.411       .  A
C761        C768   1.452       .  S
C762        C763   1.414       .  A
C763        C766   1.445       .  S
C764        C767   1.453       .  S
C765        N772   1.156       .  T
C766        N771   1.155       .  T
C767        N769   1.157       .  T
C768        N770   1.157       .  T
C773        C774   1.417       .  A
C774        C779   1.452       .  S
C775        C776   1.408       .  A
C775        C782   1.451       .  S
C776        C777   1.410       .  A
C777        C778   1.411       .  A
C777        C780   1.452       .  S
C778        C781   1.450       .  S
C779        N786   1.157       .  T
C780        N785   1.157       .  T
C781        N783   1.157       .  T
C782        N784   1.157       .  T
C787        C788   1.413       .  A
C787        C792   1.406       .  A
C788        C789   1.407       .  A
C788        C793   1.451       .  S
C789        C790   1.419       .  A
C789        C796   1.451       .  S
C790        C791   1.431       .  A
C791        C792   1.414       .  A
C791        C794   1.453       .  S
C792        C795   1.452       .  S
C793        N800   1.156       .  T
C794        N799   1.158       .  T
C795        N797   1.158       .  T
C796        N798   1.157       .  T
C801        C802   1.416       .  A
C801        C806   1.422       .  A
C802        C803   1.418       .  A
C802        C807   1.450       .  S
C803        C804   1.418       .  A
C803        C810   1.450       .  S
C804        C805   1.409       .  A
C805        C806   1.411       .  A
C805        C808   1.451       .  S
C806        C809   1.451       .  S
C807        N814   1.157       .  T
C808        N813   1.157       .  T
C809        N811   1.157       .  T
C810        N812   1.157       .  T
C815        C816   1.420       .  A
C815        C820   1.406       .  A
C816        C817   1.424       .  A
C816        C821   1.449       .  S
C817        C818   1.417       .  A
C817        C824   1.449       .  S
C818        C819   1.433       .  A
C819        C820   1.416       .  A
C819        C822   1.453       .  S
C820        C823   1.452       .  S
C821        N828   1.157       .  T
C822        N827   1.158       .  T
C823        N825   1.157       .  T
C824        N826   1.157       .  T
C829        C830   1.414       .  A
C829        C834   1.412       .  A
C830        C831   1.414   1_655  A
C830        C835   1.452       .  S
C831        C832   1.418       .  A
C831        C838   1.451       .  S
C832        C833   1.419       .  A
C833        C834   1.411   1_455  A
C833        C836   1.453       .  S
C834        C837   1.452       .  S
C835        N842   1.158       .  T
C836        N841   1.158       .  T
C837        N839   1.157       .  T
C838        N840   1.157       .  T
C843        C844   1.420       .  A
C843        C848   1.421       .  A
C844        C845   1.419       .  A
C844        C849   1.451       .  S
C845        C846   1.415       .  A
C845        C852   1.452       .  S
C846        C847   1.414       .  A
C847        C848   1.417       .  A
C847       C1874   1.451   1_545  S
C848       C1875   1.452   1_545  S
C849        N856   1.157       .  T
C850       C1871   1.451       .  S
C850        N855   1.157       .  T
C851       C1872   1.452       .  S
C851        N853   1.157       .  T
C852        N854   1.157       .  T
C857        C858   1.404       .  A
C857        C862   1.427       .  A
C858        C859   1.414   1_556  A
C858        C863   1.452       .  S
C859        C866   1.452       .  S
C860        C861   1.406       .  A
C861        C864   1.451       .  S
C862        C865   1.451       .  S
C863        N870   1.158       .  T
C864        N869   1.158       .  T
C865        N867   1.157       .  T
C866        N868   1.157       .  T
C871        C872   1.416       .  A
C871        C876   1.414       .  A
C872        C873   1.417       .  A
C872        C877   1.451       .  S
C873        C874   1.416       .  A
C873        C880   1.451       .  S
C874        C875   1.416       .  A
C875        C876   1.416       .  A
C875        C878   1.452       .  S
C876        C879   1.449       .  S
C877        N884   1.157       .  T
C878        N883   1.157       .  T
C879        N881   1.156       .  T
C880        N882   1.157       .  T
C885        C886   1.419       .  A
C885        C890   1.410       .  A
C886        C887   1.421       .  A
C886        C891   1.451       .  S
C887        C888   1.418       .  A
C887        C894   1.451       .  S
C888        C889   1.411       .  A
C889        C890   1.413       .  A
C889        C892   1.446       .  S
C890        C893   1.447       .  S
C891        N898   1.157       .  T
C892        N897   1.157       .  T
C893        N895   1.157       .  T
C894        N896   1.157       .  T
C899       C1564   1.497   1_545  S
C899        C900   1.402       .  A
C899        C904   1.416       .  A
C900        C901   1.413       .  A
C900        C905   1.451       .  S
C901        C902   1.434       .  A
C901        C908   1.452       .  S
C902        C903   1.420       .  A
C903        C904   1.422       .  A
C903        C906   1.449       .  S
C904        C907   1.450   1_545  S
C905        N912   1.156       .  T
C906        N911   1.157       .  T
C907       N1933   1.158       .  T
C908        N910   1.158       .  T
N909       C1931   1.158       .  T
C913        C914   1.405       .  A
C913        C918   1.417       .  A
C914        C919   1.449       .  S
C915        C916   1.427       .  A
C915        C922   1.453       .  S
C916       C1582   1.500       .  S
C916       C1429   1.420   1_556  A
C917       C1428   1.420   1_545  A
C917       C1942   1.410       .  A
C918       C1941   1.410       .  A
C918        C921   1.455       .  S
C919        N926   1.157       .  T
C920        N925   1.158   1_554  T
C921       N1947   1.157       .  T
C922        N924   1.157       .  T
N923       C1945   1.157       .  T
C927        C928   1.419       .  A
C927       C1956   1.418       .  A
C928        C929   1.409       .  A
C928        C933   1.452       .  S
C929       C1954   1.416       .  A
C929        C936   1.454       .  S
C930       C1953   1.416       .  A
C930        C931   1.410   1_565  A
C931        C932   1.414       .  A
C931        C934   1.449       .  S
C932       C1951   1.418   1_545  A
C932        C935   1.452       .  S
C933        N940   1.158       .  T
C934        N939   1.157       .  T
C935        N937   1.157       .  T
C936        N938   1.157       .  T
C941        C942   1.414       .  A
C941        C946   1.412       .  A
C942        C943   1.414   1_655  A
C942        C947   1.451       .  S
C943        C944   1.410       .  A
C943        C950   1.449       .  S
C944        C945   1.414       .  A
C945        C946   1.415   1_455  A
C945        C948   1.450       .  S
C946        C949   1.451       .  S
C947        N954   1.157       .  T
C948        N953   1.157       .  T
C949        N951   1.157       .  T
C950        N952   1.157       .  T
C955        C956   1.407       .  A
C955        C960   1.413       .  A
C956        C957   1.411       .  A
C956        C961   1.445       .  S
C957        C958   1.413       .  A
C957        C964   1.448       .  S
C958        C959   1.406       .  A
C959        C960   1.410       .  A
C959        C962   1.444       .  S
C960        C963   1.450       .  S
C961        N968   1.156       .  T
C962        N967   1.155       .  T
C963        N965   1.157       .  T
C964        N966   1.157       .  T
C969        C970   1.413       .  A
C969        C974   1.407       .  A
C970        C971   1.407       .  A
C970        C975   1.453       .  S
C971        C972   1.418       .  A
C971        C978   1.452       .  S
C972        C973   1.416       .  A
C973        C974   1.411       .  A
C973        C976   1.451       .  S
C974        C977   1.450       .  S
C975        N982   1.157       .  T
C976        N981   1.157       .  T
C977        N979   1.157       .  T
C978        N980   1.158       .  T
C983        C988   1.403       .  A
C984        C985   1.404       .  A
C985        C986   1.418       .  A
C985        C992   1.450       .  S
C986        C987   1.431       .  A
C987        C990   1.451       .  S
C988        C991   1.453       .  S
C989        N996   1.156       .  T
C990        N995   1.158       .  T
C991        N993   1.157       .  T
C992        N994   1.156       .  T
C997        C998   1.412       .  A
C997       C1002   1.407       .  A
C998        C999   1.417       .  A
C998       C1003   1.451       .  S
C999       C1000   1.421       .  A
C999       C1006   1.451       .  S
C1000      C1001   1.421       .  A
C1001      C1002   1.418       .  A
C1001      C1004   1.450       .  S
C1002      C1005   1.448       .  S
C1003      N1010   1.157       .  T
C1004      N1009   1.158       .  T
C1005      N1007   1.157       .  T
C1006      N1008   1.158       .  T
C1011      C1012   1.419       .  A
C1011      C1016   1.403       .  A
C1012      C1013   1.426       .  A
C1012      C1017   1.448       .  S
C1013      C1014   1.419       .  A
C1013      C1020   1.449       .  S
C1014      C1015   1.436       .  A
C1015      C1016   1.413       .  A
C1015      C1018   1.453       .  S
C1016      C1019   1.452       .  S
C1017      N1024   1.157       .  T
C1018      N1023   1.158       .  T
C1019      N1021   1.156       .  T
C1020      N1022   1.157       .  T
O1025      C1040   1.253       .  A
O1025     Al1033   1.893       .  S
C1026      O1036   1.261       .  A
C1026      O1027   1.265       .  A
C1026      C1484   1.489       .  S
O1027     Al1029   1.933       .  S
O1028      C1030   1.257       .  A
O1028     Al1029   1.855       .  S
Al1029     O1037   1.903       .  S
Al1029     O1039   1.928       .  S
Al1029     O1038   1.781       .  S
C1030      O1043   1.277       .  A
C1030      C1467   1.483       .  S
O1031      C1041   1.254       .  A
O1031     Al1033   1.903       .  S
O1032      C1045   1.258       .  A
O1032     Al1042   1.859       .  S
Al1033     O1046   1.942       .  S
Al1033     O1043   1.967       .  S
Al1033     O1038   1.779       .  S
O1034      C1041   1.263       .  A
O1034     Al1042   1.930       .  S
O1035      C1044   1.271       .  A
O1035     Al1042   1.955       .  S
O1036     Al1042   1.888       .  S
O1037      C1044   1.265       .  A
O1038     Al1042   1.778       .  S
O1039      C1040   1.260       .  A
C1040      C1512   1.510       .  S
C1041      C1523   1.507       .  S
C1044      C1453   1.488       .  S
C1045      O1046   1.276       .  A
C1045      C1498   1.499       .  S
O1047      C1062   1.274       .  A
O1047     Al1055   1.949       .  S
C1048      O1058   1.267       .  A
C1048      O1049   1.261       .  A
C1048      C1439   1.496       .  S
O1049     Al1051   1.890       .  S
O1050      C1052   1.264   1_545  A
O1050     Al1051   1.933   1_545  S
Al1051     O1059   1.957       .  S
Al1051     O1061   1.856       .  S
Al1051     O1060   1.774       .  S
C1052      O1065   1.256       .  A
O1053      C1063   1.276       .  A
O1053     Al1055   1.969       .  S
O1054      C1067   1.264       .  A
O1054     Al1064   1.945       .  S
Al1055     O1068   1.897       .  S
Al1055     O1065   1.900       .  S
Al1055     O1060   1.779       .  S
O1056      C1063   1.256       .  A
O1056     Al1064   1.860       .  S
O1057      C1066   1.265       .  A
O1057     Al1064   1.904       .  S
O1058     Al1064   1.940       .  S
O1059      C1066   1.272       .  A
O1060     Al1064   1.779       .  S
O1061      C1062   1.259       .  A
C1062      C1425   1.487       .  S
C1063      C1470   1.485       .  S
C1066      C1383   1.498       .  S
C1067      O1068   1.257       .  A
C1067      C1400   1.510       .  S
O1069      C1084   1.243       .  A
O1069     Al1077   1.859       .  S
C1070      O1071   1.276       .  A
O1071     Al1073   1.959       .  S
O1072      C1074   1.250       .  A
O1072     Al1073   1.834       .  S
Al1073     O1081   1.914       .  S
Al1073     O1083   2.004       .  S
Al1073     O1082   1.779       .  S
C1074      O1087   1.284       .  A
C1074      C1369   1.495       .  S
O1075     Al1077   1.900       .  S
O1076      C1089   1.255       .  A
O1076     Al1086   1.845       .  S
Al1077     O1090   1.974       .  S
Al1077     O1087   2.004       .  S
Al1077     O1082   1.757       .  S
O1078      C1085   1.266       .  A
O1079      C1088   1.272       .  A
O1079     Al1086   1.950       .  S
O1081      C1088   1.270       .  A
O1082     Al1086   1.766       .  S
O1083      C1084   1.273       .  A
C1084      C1526   1.526       .  S
C1085      C1509   1.494       .  S
C1088      C1358   1.501       .  S
C1089      O1090   1.279       .  A
C1089      C1442   1.483       .  S
O1091      C1106   1.279       .  A
O1091     Al1099   1.968       .  S
C1092      O1102   1.273       .  A
C1092      O1093   1.261       .  A
C1092      C1495   1.473       .  S
O1093     Al1095   1.862       .  S
O1094      C1096   1.264       .  A
O1094     Al1095   1.946       .  S
Al1095     O1103   1.940       .  S
Al1095     O1105   1.843       .  S
Al1095     O1104   1.775       .  S
C1096      O1109   1.257       .  A
C1096      C1397   1.497       .  S
O1097      C1107   1.284       .  A
O1097     Al1099   2.004       .  S
O1098      C1111   1.270       .  A
O1098     Al1108   1.979       .  S
Al1099     O1112   1.862       .  S
Al1099     O1109   1.902       .  S
Al1099     O1104   1.761       .  S
O1100      C1107   1.249       .  A
O1100     Al1108   1.833       .  S
O1101      C1110   1.265       .  A
O1101     Al1108   1.901       .  S
O1102     Al1108   1.947       .  S
O1103      C1110   1.269       .  A
O1104     Al1108   1.778       .  S
O1105      C1106   1.255       .  A
C1106      C1481   1.474       .  S
C1107      C1372   1.500       .  S
C1110      C1341   1.488       .  S
C1111      O1112   1.246       .  A
C1111      C1414   1.521       .  S
O1113      C1128   1.252       .  A
O1113     Al1121   1.873       .  S
C1114      O1124   1.261       .  A
C1114      O1115   1.273       .  A
C1114      C1285   1.491       .  S
O1115     Al1117   1.955       .  S
O1116      C1118   1.249       .  A
O1116     Al1117   1.834       .  S
Al1117     O1125   1.895       .  S
Al1117     O1127   1.945       .  S
Al1117     O1126   1.785       .  S
C1118      O1131   1.274       .  A
C1118      C1271   1.478       .  S
O1119      C1129   1.256       .  A
O1119     Al1121   1.903       .  S
O1120      C1133   1.260       .  A
O1120     Al1130   1.868       .  S
Al1121     O1134   1.955       .  S
Al1121     O1131   1.971       .  S
Al1121     O1126   1.773       .  S
O1122      C1129   1.265       .  A
O1122     Al1130   1.946       .  S
O1123      C1132   1.268       .  A
O1123     Al1130   1.951       .  S
O1124     Al1130   1.871       .  S
O1125      C1132   1.258       .  A
O1126     Al1130   1.777       .  S
O1127      C1128   1.266       .  A
C1128      C1313   1.510       .  S
C1129      C1327   1.506       .  S
C1132      C1456   1.487       .  S
C1133      O1134   1.277       .  A
C1133      C1302   1.509       .  S
O1135      C1150   1.286       .  A
O1135     Al1143   1.975       .  S
C1136      O1146   1.278       .  A
C1136      O1137   1.264       .  A
C1136      C1257   1.492       .  S
O1137     Al1139   1.867       .  S
O1138      C1140   1.256       .  A
O1138     Al1139   1.927       .  S
Al1139     O1147   1.932       .  S
Al1139     O1149   1.869       .  S
Al1139     O1148   1.788       .  S
C1140      O1153   1.247       .  A
O1141      C1151   1.271       .  A
O1141     Al1143   1.957       .  S
O1142      C1155   1.263       .  A
O1142     Al1152   1.934       .  S
Al1143     O1156   1.858       .  S
Al1143     O1153   1.895       .  S
Al1143     O1148   1.773       .  S
O1144      C1151   1.250       .  A
O1144     Al1152   1.847       .  S
O1145      C1154   1.256       .  A
O1145     Al1152   1.904       .  S
O1146     Al1152   1.961       .  S
O1147      C1154   1.261       .  A
O1148     Al1152   1.789       .  S
O1149      C1150   1.265       .  A
C1150      C1243   1.515       .  S
C1151      C1274   1.483       .  S
C1154      C1386   1.500       .  S
C1155      O1156   1.250       .  A
C1155      C1218   1.506       .  S
O1157      C1172   1.277       .  A
O1157     Al1165   1.961       .  S
C1158      O1168   1.272       .  A
C1158      O1159   1.262       .  A
C1158      C1299   1.487       .  S
O1159     Al1161   1.875       .  S
O1160      C1162   1.263       .  A
O1160     Al1161   1.934       .  S
Al1161     O1169   1.939       .  S
Al1161     O1171   1.860       .  S
Al1161     O1170   1.776       .  S
C1162      O1175   1.256       .  A
C1162      C1215   1.495       .  S
O1163      C1173   1.280       .  A
O1163     Al1165   1.992       .  S
O1164      C1177   1.268       .  A
O1164     Al1174   1.965       .  S
Al1165     O1178   1.864       .  S
Al1165     O1175   1.893       .  S
Al1165     O1170   1.763       .  S
O1166      C1173   1.248       .  A
O1166     Al1174   1.823       .  S
O1167      C1176   1.263       .  A
O1167     Al1174   1.893       .  S
O1168     Al1174   1.943       .  S
O1169      C1176   1.270       .  A
O1170     Al1174   1.778       .  S
O1171      C1172   1.259       .  A
C1172      C1288   1.475       .  S
C1173      C1201   1.490       .  S
C1176      C1344   1.496       .  S
C1177      O1178   1.247       .  A
C1177      C1229   1.515       .  S
O1179      C1194   1.247       .  A
O1179     Al1187   1.852       .  S
C1180      O1181   1.280       .  A
O1181     Al1183   1.975       .  S
O1182      C1184   1.246       .  A
O1182     Al1183   1.824       .  S
Al1183     O1191   1.908       .  S
Al1183     O1193   1.982       .  S
Al1183     O1192   1.779       .  S
C1184      O1197   1.278       .  A
C1184      C1204   1.497       .  S
O1185     Al1187   1.891       .  S
O1186      C1199   1.261       .  A
O1186     Al1196   1.856       .  S
Al1187     O1200   1.972       .  S
Al1187     O1197   1.982       .  S
Al1187     O1192   1.769       .  S
O1188      C1195   1.260       .  A
O1189      C1198   1.267       .  A
O1189     Al1196   1.943       .  S
O1191      C1198   1.262       .  A
O1192     Al1196   1.782       .  S
O1193      C1194   1.273       .  A
C1194      C1330   1.524       .  S
C1195      C1316   1.494       .  S
C1198      C1355   1.510       .  S
C1199      O1200   1.281       .  A
C1199      C1260   1.476       .  S
C1201      C1202   1.426       .  A
C1201      C1206   1.404       .  A
C1202      C1203   1.411       .  A
C1202      C1207   1.453       .  S
C1203      C1204   1.406       .  A
C1203      C1210   1.451       .  S
C1204      C1205   1.430       .  A
C1205      C1206   1.414       .  A
C1205      C1208   1.452       .  S
C1206      C1209   1.452       .  S
C1207      N1214   1.157       .  T
C1208      N1213   1.157       .  T
C1209      N1211   1.158       .  T
C1210      N1212   1.158       .  T
C1215      C1216   1.418       .  A
C1215      C1220   1.411       .  A
C1216      C1217   1.418       .  A
C1216      C1221   1.451       .  S
C1217      C1218   1.414       .  A
C1217      C1224   1.450       .  S
C1218      C1219   1.420       .  A
C1219      C1220   1.412       .  A
C1219      C1222   1.452       .  S
C1220      C1223   1.451       .  S
C1221      N1228   1.157       .  T
C1222      N1227   1.158       .  T
C1223      N1225   1.157       .  T
C1224      N1226   1.157       .  T
C1229      C1230   1.417       .  A
C1229      C1234   1.429       .  A
C1230      C1231   1.420       .  A
C1230      C1235   1.449       .  S
C1231      C1232   1.419       .  A
C1232      C1233   1.408       .  A
C1233      C1234   1.413       .  A
C1233      C1236   1.450       .  S
C1234      C1237   1.454       .  S
C1235      N1242   1.157       .  T
C1236      N1241   1.156       .  T
C1237      N1239   1.158       .  T
C1238      N1240   1.157       .  T
C1243      C1244   1.417       .  A
C1243      C1248   1.434       .  A
C1244      C1245   1.412       .  A
C1244      C1249   1.452       .  S
C1245      C1246   1.416       .  A
C1245      C1252   1.448       .  S
C1246      C1247   1.405       .  A
C1247      C1248   1.419       .  A
C1248      C1251   1.451       .  S
C1249      N1256   1.157       .  T
C1250      N1255   1.157       .  T
C1251      N1253   1.157       .  T
C1252      N1254   1.155       .  T
C1257      C1774   1.417   1_554  A
C1258      C1771   1.409       .  A
C1258      C1263   1.452   1_556  S
C1259      C1770   1.409       .  A
C1259      C1260   1.408       .  A
C1259      C1266   1.450       .  S
C1261      C1262   1.412       .  A
C1261      C1264   1.453       .  S
C1262      C1769   1.417       .  A
C1262      C1265   1.449       .  S
C1263      N1270   1.157       .  T
C1264      N1269   1.157       .  T
C1265      N1267   1.157       .  T
C1266      N1268   1.157       .  T
C1271      C1272   1.413       .  A
C1271      C1276   1.409       .  A
C1272      C1785   1.415       .  A
C1272      C1277   1.446       .  S
C1273      C1784   1.415       .  A
C1273      C1274   1.411   1_556  A
C1273      C1280   1.452   1_556  S
C1274      C1275   1.414       .  A
C1275      C1788   1.411   1_554  A
C1275      C1278   1.445       .  S
C1276      C1787   1.411       .  A
C1276      C1279   1.453       .  S
C1277      N1284   1.156       .  T
C1278      N1283   1.155       .  T
C1279      N1281   1.157       .  T
C1280      N1282   1.157       .  T
C1285      C1286   1.417       .  A
C1285      C1802   1.418       .  A
C1286      C1799   1.410       .  A
C1286      C1291   1.452       .  S
C1287      C1798   1.410   1_554  A
C1287      C1288   1.408       .  A
C1287      C1294   1.451       .  S
C1288      C1289   1.410       .  A
C1289      C1290   1.411       .  A
C1289      C1292   1.452       .  S
C1290      C1797   1.418   1_554  A
C1290      C1293   1.450       .  S
C1291      N1298   1.157       .  T
C1292      N1297   1.157       .  T
C1293      N1295   1.157       .  T
C1294      N1296   1.157       .  T
C1299      C1300   1.413       .  A
C1299      C1304   1.406       .  A
C1300      C1301   1.407       .  A
C1300      C1305   1.451       .  S
C1301      C1302   1.419       .  A
C1301      C1308   1.451       .  S
C1302      C1303   1.431       .  A
C1303      C1304   1.414       .  A
C1303      C1306   1.453       .  S
C1304      C1307   1.452       .  S
C1305      N1312   1.156       .  T
C1306      N1311   1.158       .  T
C1307      N1309   1.158       .  T
C1308      N1310   1.157       .  T
C1313      C1314   1.416       .  A
C1313      C1318   1.422       .  A
C1314      C1315   1.418       .  A
C1314      C1319   1.450       .  S
C1315      C1316   1.418       .  A
C1315      C1322   1.450       .  S
C1316      C1317   1.409       .  A
C1317      C1318   1.411       .  A
C1317      C1320   1.451       .  S
C1318      C1321   1.451       .  S
C1319      N1326   1.157       .  T
C1320      N1325   1.157       .  T
C1321      N1323   1.157       .  T
C1322      N1324   1.157   1_565  T
C1327      C1328   1.420       .  A
C1327      C1332   1.406       .  A
C1328      C1329   1.424       .  A
C1328      C1333   1.449       .  S
C1329      C1330   1.417       .  A
C1329      C1336   1.449       .  S
C1330      C1331   1.433       .  A
C1331      C1332   1.416       .  A
C1331      C1334   1.453       .  S
C1332      C1335   1.452       .  S
C1333      N1340   1.157       .  T
C1334      N1339   1.158       .  T
C1335      N1337   1.157       .  T
C1336      N1338   1.157       .  T
C1341      C1342   1.414       .  A
C1341      C1346   1.412       .  A
C1342      C1343   1.414   1_655  A
C1342      C1347   1.452       .  S
C1343      C1344   1.418       .  A
C1343      C1350   1.451       .  S
C1344      C1345   1.419       .  A
C1345      C1346   1.411   1_455  A
C1345      C1348   1.453       .  S
C1346      C1349   1.452       .  S
C1347      N1354   1.158       .  T
C1348      N1353   1.158       .  T
C1349      N1351   1.157       .  T
C1350      N1352   1.157       .  T
C1355      C1356   1.420       .  A
C1355      C1360   1.421       .  A
C1356      C1357   1.419       .  A
C1356      C1361   1.451       .  S
C1357      C1358   1.415       .  A
C1357      C1364   1.452       .  S
C1358      C1359   1.414       .  A
C1359      C1360   1.417       .  A
C1361      N1368   1.157       .  T
C1362      N1367   1.157       .  T
C1363      N1365   1.157       .  T
C1364      N1366   1.157       .  T
C1369      C1370   1.404       .  A
C1369      C1374   1.427       .  A
C1370      C1371   1.414       .  A
C1370      C1375   1.452       .  S
C1371      C1884   1.431       .  A
C1371      C1378   1.452       .  S
C1372      C1883   1.431       .  A
C1372      C1373   1.406       .  A
C1373      C1886   1.415   1_554  A
C1373      C1376   1.451       .  S
C1374      C1885   1.415       .  A
C1374      C1377   1.451       .  S
C1375      N1382   1.158       .  T
C1376      N1381   1.158       .  T
C1377      N1379   1.157       .  T
C1378      N1380   1.157       .  T
C1383      C1384   1.416       .  A
C1383      C1388   1.414       .  A
C1384      C1385   1.417       .  A
C1384      C1389   1.451       .  S
C1385      C1386   1.416       .  A
C1385      C1392   1.451       .  S
C1386      C1387   1.416       .  A
C1387      C1388   1.416       .  A
C1387      C1390   1.452       .  S
C1388      C1391   1.449       .  S
C1389      N1396   1.157       .  T
C1390      N1395   1.157       .  T
C1391      N1393   1.156       .  T
C1392      N1394   1.157       .  T
C1397      C1398   1.419       .  A
C1397      C1402   1.410       .  A
C1398      C1399   1.421       .  A
C1398      C1403   1.451       .  S
C1399      C1400   1.418       .  A
C1399      C1406   1.451       .  S
C1400      C1401   1.411       .  A
C1401      C1402   1.413       .  A
C1401      C1404   1.446       .  S
C1402      C1405   1.447       .  S
C1403      N1410   1.157       .  T
C1404      N1409   1.157       .  T
C1405      N1407   1.157       .  T
C1406      N1408   1.157       .  T
C1411      C1412   1.402       .  A
C1411      C1416   1.416       .  A
C1412      C1413   1.413       .  A
C1412      C1417   1.451       .  S
C1413      C1414   1.434       .  A
C1413      C1420   1.452       .  S
C1414      C1415   1.420       .  A
C1415      C1416   1.422       .  A
C1415      C1418   1.449       .  S
C1416      C1419   1.450       .  S
C1417      N1424   1.156       .  T
C1418      N1423   1.157       .  T
C1420      N1422   1.158       .  T
C1425      C1426   1.405       .  A
C1425      C1430   1.417   1_565  A
C1426      C1939   1.407   1_554  A
C1426      C1431   1.449       .  S
C1427      C1938   1.407       .  A
C1427      C1428   1.427       .  A
C1427      C1434   1.453       .  S
C1429      C1944   1.452       .  S
C1430      C1433   1.455       .  S
C1431      N1438   1.157       .  T
C1432      C1941   1.452       .  S
C1432      N1437   1.158       .  T
C1434      N1436   1.157       .  T
C1439      C1440   1.419       .  A
C1440      C1441   1.409       .  A
C1440      C1445   1.452       .  S
C1441      C1448   1.454       .  S
C1442      C1443   1.410       .  A
C1443      C1444   1.414       .  A
C1443      C1446   1.449       .  S
C1444      C1447   1.452       .  S
C1445      N1452   1.158       .  T
C1446      N1451   1.157       .  T
C1447      N1449   1.157       .  T
C1448      N1450   1.157       .  T
C1453      C1454   1.414       .  A
C1453      C1458   1.412       .  A
C1454      C1455   1.414   1_655  A
C1454      C1459   1.451       .  S
C1455      C1456   1.410       .  A
C1455      C1462   1.449       .  S
C1456      C1457   1.414       .  A
C1457      C1458   1.415   1_455  A
C1457      C1460   1.450       .  S
C1458      C1461   1.451       .  S
C1459      N1466   1.157       .  T
C1460      N1465   1.157       .  T
C1461      N1463   1.157       .  T
C1462      N1464   1.157       .  T
C1467      C1468   1.407       .  A
C1467      C1472   1.413       .  A
C1468      C1469   1.411       .  A
C1468      C1473   1.445       .  S
C1469      C1470   1.413       .  A
C1469      C1476   1.448       .  S
C1470      C1471   1.406       .  A
C1471      C1472   1.410       .  A
C1471      C1474   1.444       .  S
C1472      C1475   1.450       .  S
C1473      N1480   1.156       .  T
C1474      N1479   1.155       .  T
C1475      N1477   1.157       .  T
C1476      N1478   1.157       .  T
C1481      C1482   1.413       .  A
C1481      C1486   1.407       .  A
C1482      C1483   1.407       .  A
C1482      C1487   1.453       .  S
C1483      C1484   1.418       .  A
C1483      C1490   1.452       .  S
C1484      C1485   1.416       .  A
C1485      C1486   1.411       .  A
C1485      C1488   1.451       .  S
C1486      C1489   1.450       .  S
C1487      N1494   1.157       .  T
C1488      N1493   1.157       .  T
C1489      N1491   1.157       .  T
C1490      N1492   1.158       .  T
C1495      C2008   1.409   1_554  A
C1495      C1500   1.403   1_554  A
C1496      C2007   1.410       .  A
C1496      C1497   1.404       .  A
C1496      C2013   1.453       .  S
C1497      C1498   1.418       .  A
C1497      C1504   1.450       .  S
C1498      C1499   1.431       .  A
C1499      C2012   1.411       .  A
C1499      C1502   1.451       .  S
C1500      C2011   1.411       .  A
C1500      C1503   1.453   1_556  S
C1501      C2008   1.453   1_554  S
C1501      N1508   1.156       .  T
C1502      N1507   1.158       .  T
C1503      N1505   1.157       .  T
C1504      N1506   1.156       .  T
C1509      C1510   1.412       .  A
C1509      C1514   1.407       .  A
C1510      C1511   1.417       .  A
C1510      C1515   1.451       .  S
C1511      C1512   1.421       .  A
C1511      C1518   1.451       .  S
C1512      C1513   1.421       .  A
C1513      C1514   1.418       .  A
C1513      C1516   1.450       .  S
C1514      C1517   1.448       .  S
C1515      N1522   1.157       .  T
C1516      N1521   1.158       .  T
C1517      N1519   1.157       .  T
C1518      N1520   1.158       .  T
C1523      C1524   1.419       .  A
C1523      C1528   1.403       .  A
C1524      C1525   1.426       .  A
C1524      C1529   1.448       .  S
C1525      C1526   1.419       .  A
C1525      C1532   1.449       .  S
C1526      C1527   1.436       .  A
C1527      C1528   1.413       .  A
C1527      C1530   1.453       .  S
C1528      C1531   1.452       .  S
C1529      N1536   1.157       .  T
C1530      N1535   1.158       .  T
C1531      N1533   1.156       .  T
C1532      N1534   1.157       .  T
O1537      C1552   1.253       .  A
O1537     Al1545   1.893       .  S
C1538      O1548   1.261       .  A
C1538      O1539   1.265       .  A
C1538      C1996   1.489       .  S
O1539     Al1541   1.933       .  S
O1540      C1542   1.257       .  A
O1540     Al1541   1.855       .  S
Al1541     O1549   1.903       .  S
Al1541     O1551   1.928       .  S
Al1541     O1550   1.781       .  S
C1542      O1555   1.277       .  A
C1542      C1979   1.483       .  S
O1543      C1553   1.254       .  A
O1543     Al1545   1.903       .  S
O1544      C1557   1.258       .  A
O1544     Al1554   1.859       .  S
Al1545     O1558   1.942       .  S
Al1545     O1555   1.967       .  S
Al1545     O1550   1.779       .  S
O1546      C1553   1.263       .  A
O1546     Al1554   1.930       .  S
O1547      C1556   1.271       .  A
O1547     Al1554   1.955       .  S
O1548     Al1554   1.888       .  S
O1549      C1556   1.265       .  A
O1550     Al1554   1.778       .  S
O1551      C1552   1.260       .  A
C1552      C2024   1.510       .  S
C1553      C2035   1.507       .  S
C1556      C1965   1.488       .  S
C1557      O1558   1.276       .  A
C1557      C2010   1.499       .  S
O1559      C1574   1.274       .  A
O1559     Al1567   1.949       .  S
C1560      O1570   1.267       .  A
C1560      O1561   1.261       .  A
C1560      C1951   1.496       .  S
O1561     Al1563   1.890       .  S
O1562      C1564   1.264   1_545  A
O1562     Al1563   1.933   1_545  S
Al1563     O1571   1.957       .  S
Al1563     O1573   1.856       .  S
Al1563     O1572   1.774       .  S
C1564      O1577   1.256       .  A
O1565      C1575   1.276       .  A
O1565     Al1567   1.969       .  S
O1566      C1579   1.264       .  A
O1566     Al1576   1.945       .  S
Al1567     O1580   1.897       .  S
Al1567     O1577   1.900       .  S
Al1567     O1572   1.779       .  S
O1568      C1575   1.256       .  A
O1568     Al1576   1.860       .  S
O1569      C1578   1.265       .  A
O1569     Al1576   1.904       .  S
O1570     Al1576   1.940       .  S
O1571      C1578   1.272       .  A
O1572     Al1576   1.779       .  S
O1573      C1574   1.259       .  A
C1574      C1937   1.487       .  S
C1575      C1982   1.485       .  S
C1578      C1895   1.498       .  S
C1579      O1580   1.257       .  A
C1579      C1912   1.510       .  S
O1581      C1596   1.243       .  A
O1581     Al1589   1.859       .  S
C1582      O1583   1.276       .  A
O1583     Al1585   1.959       .  S
O1584      C1586   1.250       .  A
O1584     Al1585   1.834       .  S
Al1585     O1593   1.914       .  S
Al1585     O1595   2.004       .  S
Al1585     O1594   1.779       .  S
C1586      O1599   1.284       .  A
C1586      C1881   1.495       .  S
O1587     Al1589   1.900       .  S
O1588      C1601   1.255       .  A
O1588     Al1598   1.845       .  S
Al1589     O1602   1.974       .  S
Al1589     O1599   2.004       .  S
Al1589     O1594   1.757       .  S
O1590      C1597   1.266       .  A
O1591      C1600   1.272       .  A
O1591     Al1598   1.950       .  S
O1593      C1600   1.270       .  A
O1594     Al1598   1.766       .  S
O1595      C1596   1.273       .  A
C1596      C2038   1.526       .  S
C1597      C2021   1.494       .  S
C1600      C1870   1.501       .  S
C1601      O1602   1.279       .  A
C1601      C1954   1.483       .  S
O1603      C1618   1.279       .  A
O1603     Al1611   1.968       .  S
C1604      O1614   1.273       .  A
C1604      O1605   1.261       .  A
C1604      C2007   1.474       .  S
O1605     Al1607   1.862       .  S
O1606      C1608   1.264       .  A
O1606     Al1607   1.946       .  S
Al1607     O1615   1.940       .  S
Al1607     O1617   1.843       .  S
Al1607     O1616   1.775       .  S
C1608      O1621   1.257       .  A
C1608      C1909   1.497       .  S
O1609      C1619   1.284       .  A
O1609     Al1611   2.004       .  S
O1610      C1623   1.270       .  A
O1610     Al1620   1.979       .  S
Al1611     O1624   1.862       .  S
Al1611     O1621   1.902       .  S
Al1611     O1616   1.761       .  S
O1612      C1619   1.249       .  A
O1612     Al1620   1.833       .  S
O1613      C1622   1.265       .  A
O1613     Al1620   1.901       .  S
O1614     Al1620   1.947       .  S
O1615      C1622   1.269       .  A
O1616     Al1620   1.778       .  S
O1617      C1618   1.255       .  A
C1618      C1993   1.474       .  S
C1619      C1884   1.500       .  S
C1622      C1853   1.488       .  S
C1623      O1624   1.246       .  A
C1623      C1926   1.522       .  S
O1625      C1640   1.252       .  A
O1625     Al1633   1.873       .  S
C1626      O1636   1.261       .  A
C1626      O1627   1.273       .  A
C1626      C1797   1.491       .  S
O1627     Al1629   1.955       .  S
O1628      C1630   1.249       .  A
O1628     Al1629   1.834       .  S
Al1629     O1637   1.895       .  S
Al1629     O1639   1.945       .  S
Al1629     O1638   1.785       .  S
C1630      O1643   1.274       .  A
C1630      C1783   1.478       .  S
O1631      C1641   1.256       .  A
O1631     Al1633   1.903       .  S
O1632      C1645   1.260       .  A
O1632     Al1642   1.868       .  S
Al1633     O1646   1.955       .  S
Al1633     O1643   1.971       .  S
Al1633     O1638   1.773       .  S
O1634      C1641   1.265       .  A
O1634     Al1642   1.946       .  S
O1635      C1644   1.268       .  A
O1635     Al1642   1.951       .  S
O1636     Al1642   1.871       .  S
O1637      C1644   1.258       .  A
O1638     Al1642   1.777       .  S
O1639      C1640   1.266       .  A
C1640      C1825   1.510       .  S
C1641      C1839   1.506       .  S
C1644      C1968   1.487       .  S
C1645      O1646   1.277       .  A
C1645      C1814   1.509       .  S
O1647      C1662   1.286       .  A
O1647     Al1655   1.975       .  S
C1648      O1658   1.278       .  A
C1648      O1649   1.264       .  A
C1648      C1769   1.492       .  S
O1649     Al1651   1.867       .  S
O1650      C1652   1.256       .  A
O1650     Al1651   1.927       .  S
Al1651     O1659   1.932       .  S
Al1651     O1661   1.869       .  S
Al1651     O1660   1.788       .  S
C1652      O1665   1.247       .  A
O1653      C1663   1.271       .  A
O1653     Al1655   1.957       .  S
O1654      C1667   1.263       .  A
O1654     Al1664   1.934       .  S
Al1655     O1668   1.858       .  S
Al1655     O1665   1.895       .  S
Al1655     O1660   1.773       .  S
O1656      C1663   1.250       .  A
O1656     Al1664   1.847       .  S
O1657      C1666   1.256       .  A
O1657     Al1664   1.904       .  S
O1658     Al1664   1.961       .  S
O1659      C1666   1.261       .  A
O1660     Al1664   1.789       .  S
O1661      C1662   1.265       .  A
C1662      C1755   1.515       .  S
C1663      C1786   1.483       .  S
C1666      C1898   1.500       .  S
C1667      O1668   1.250       .  A
C1667      C1730   1.506       .  S
O1669      C1684   1.277       .  A
O1669     Al1677   1.961       .  S
C1670      O1680   1.272       .  A
C1670      O1671   1.262       .  A
C1670      C1811   1.487       .  S
O1671     Al1673   1.875       .  S
O1672      C1674   1.263       .  A
O1672     Al1673   1.934       .  S
Al1673     O1681   1.939       .  S
Al1673     O1683   1.860       .  S
Al1673     O1682   1.776       .  S
C1674      O1687   1.256       .  A
C1674      C1727   1.495       .  S
O1675      C1685   1.280       .  A
O1675     Al1677   1.992       .  S
O1676      C1689   1.268       .  A
O1676     Al1686   1.965       .  S
Al1677     O1690   1.863       .  S
Al1677     O1687   1.893       .  S
Al1677     O1682   1.763       .  S
O1678      C1685   1.248       .  A
O1678     Al1686   1.823       .  S
O1679      C1688   1.263       .  A
O1679     Al1686   1.893       .  S
O1680     Al1686   1.943       .  S
O1681      C1688   1.270       .  A
O1682     Al1686   1.779       .  S
O1683      C1684   1.259       .  A
C1684      C1800   1.475       .  S
C1685      C1713   1.490       .  S
C1688      C1856   1.496       .  S
C1689      O1690   1.247       .  A
C1689      C1741   1.515       .  S
O1691      C1706   1.247       .  A
O1691     Al1699   1.852       .  S
C1692      O1693   1.280       .  A
O1693     Al1695   1.975       .  S
O1694      C1696   1.246       .  A
O1694     Al1695   1.824       .  S
Al1695     O1703   1.908       .  S
Al1695     O1705   1.981       .  S
Al1695     O1704   1.779       .  S
C1696      O1709   1.278       .  A
C1696      C1716   1.497       .  S
O1697     Al1699   1.891       .  S
O1698      C1711   1.261       .  A
O1698     Al1708   1.856       .  S
Al1699     O1712   1.972       .  S
Al1699     O1709   1.982       .  S
Al1699     O1704   1.769       .  S
O1700      C1707   1.260       .  A
O1701      C1710   1.267       .  A
O1701     Al1708   1.943       .  S
O1703      C1710   1.261       .  A
O1704     Al1708   1.782       .  S
O1705      C1706   1.273       .  A
C1706      C1842   1.524       .  S
C1707      C1828   1.494       .  S
C1710      C1867   1.510       .  S
C1711      O1712   1.281       .  A
C1711      C1772   1.476       .  S
C1713      C1714   1.426       .  A
C1713      C1718   1.404       .  A
C1714      C1715   1.411       .  A
C1714      C1719   1.453       .  S
C1715      C1716   1.406       .  A
C1715      C1722   1.451       .  S
C1716      C1717   1.430       .  A
C1717      C1718   1.414       .  A
C1717      C1720   1.452       .  S
C1718      C1721   1.452       .  S
C1719      N1726   1.157       .  T
C1720      N1725   1.157       .  T
C1721      N1723   1.158       .  T
C1722      N1724   1.158       .  T
C1727      C1728   1.418       .  A
C1727      C1732   1.411       .  A
C1728      C1729   1.418       .  A
C1728      C1733   1.451       .  S
C1729      C1730   1.414       .  A
C1729      C1736   1.450       .  S
C1730      C1731   1.420       .  A
C1731      C1732   1.412       .  A
C1731      C1734   1.452       .  S
C1732      C1735   1.451       .  S
C1733      N1740   1.157       .  T
C1734      N1739   1.158       .  T
C1735      N1737   1.157       .  T
C1736      N1738   1.157       .  T
C1741      C1742   1.417       .  A
C1741      C1746   1.429       .  A
C1742      C1743   1.420       .  A
C1742      C1747   1.449       .  S
C1743      C1744   1.419       .  A
C1744      C1745   1.408       .  A
C1745      C1746   1.413       .  A
C1745      C1748   1.450       .  S
C1746      C1749   1.454       .  S
C1747      N1754   1.157       .  T
C1748      N1753   1.156       .  T
C1749      N1751   1.158       .  T
C1750      N1752   1.157       .  T
C1755      C1756   1.417       .  A
C1755      C1760   1.434       .  A
C1756      C1757   1.412       .  A
C1756      C1761   1.452       .  S
C1757      C1758   1.416       .  A
C1757      C1764   1.448       .  S
C1758      C1759   1.405       .  A
C1759      C1760   1.419       .  A
C1760      C1763   1.451       .  S
C1761      N1768   1.157       .  T
C1762      N1767   1.157       .  T
C1763      N1765   1.157       .  T
C1764      N1766   1.155       .  T
C1770      C1775   1.452       .  S
C1771      C1772   1.408       .  A
C1771      C1778   1.450       .  S
C1773      C1774   1.412       .  A
C1773      C1776   1.453       .  S
C1774      C1777   1.449       .  S
C1775      N1782   1.157       .  T
C1776      N1781   1.157       .  T
C1777      N1779   1.157       .  T
C1778      N1780   1.157       .  T
C1783      C1784   1.413       .  A
C1783      C1788   1.409       .  A
C1784      C1789   1.446       .  S
C1785      C1786   1.411       .  A
C1785      C1792   1.452       .  S
C1786      C1787   1.414       .  A
C1787      C1790   1.445       .  S
C1788      C1791   1.453       .  S
C1789      N1796   1.156       .  T
C1790      N1795   1.155       .  T
C1791      N1793   1.157       .  T
C1792      N1794   1.157       .  T
C1797      C1798   1.417       .  A
C1798      C1803   1.452       .  S
C1799      C1800   1.408       .  A
C1799      C1806   1.451       .  S
C1800      C1801   1.410       .  A
C1801      C1802   1.411       .  A
C1801      C1804   1.452       .  S
C1802      C1805   1.450       .  S
C1803      N1810   1.157       .  T
C1804      N1809   1.157       .  T
C1805      N1807   1.157       .  T
C1806      N1808   1.157       .  T
C1811      C1812   1.413       .  A
C1811      C1816   1.407       .  A
C1812      C1813   1.407       .  A
C1812      C1817   1.451       .  S
C1813      C1814   1.419       .  A
C1813      C1820   1.451       .  S
C1814      C1815   1.431       .  A
C1815      C1816   1.414       .  A
C1815      C1818   1.453       .  S
C1816      C1819   1.452       .  S
C1817      N1824   1.156       .  T
C1818      N1823   1.158       .  T
C1819      N1821   1.158       .  T
C1820      N1822   1.157       .  T
C1825      C1826   1.416       .  A
C1825      C1830   1.422       .  A
C1826      C1827   1.418       .  A
C1826      C1831   1.450       .  S
C1827      C1828   1.418       .  A
C1827      C1834   1.450       .  S
C1828      C1829   1.409       .  A
C1829      C1830   1.411       .  A
C1829      C1832   1.451       .  S
C1830      C1833   1.451       .  S
C1831      N1838   1.157       .  T
C1832      N1837   1.157       .  T
C1833      N1835   1.157       .  T
C1834      N1836   1.157   1_565  T
C1839      C1840   1.420       .  A
C1839      C1844   1.406       .  A
C1840      C1841   1.424       .  A
C1840      C1845   1.449       .  S
C1841      C1842   1.417       .  A
C1841      C1848   1.449       .  S
C1842      C1843   1.433       .  A
C1843      C1844   1.416       .  A
C1843      C1846   1.453       .  S
C1844      C1847   1.452       .  S
C1845      N1852   1.157       .  T
C1846      N1851   1.158       .  T
C1847      N1849   1.157       .  T
C1848      N1850   1.157       .  T
C1853      C1854   1.414       .  A
C1853      C1858   1.412       .  A
C1854      C1855   1.414   1_655  A
C1854      C1859   1.452       .  S
C1855      C1856   1.418       .  A
C1855      C1862   1.451       .  S
C1856      C1857   1.419       .  A
C1857      C1858   1.411   1_455  A
C1857      C1860   1.453       .  S
C1858      C1861   1.452       .  S
C1859      N1866   1.158       .  T
C1860      N1865   1.158       .  T
C1861      N1863   1.157       .  T
C1862      N1864   1.157       .  T
C1867      C1868   1.420       .  A
C1867      C1872   1.421       .  A
C1868      C1869   1.419       .  A
C1868      C1873   1.451       .  S
C1869      C1870   1.415       .  A
C1869      C1876   1.452       .  S
C1870      C1871   1.414       .  A
C1871      C1872   1.417       .  A
C1873      N1880   1.157       .  T
C1874      N1879   1.157       .  T
C1875      N1877   1.157       .  T
C1876      N1878   1.157       .  T
C1881      C1882   1.404       .  A
C1881      C1886   1.427       .  A
C1882      C1883   1.414   1_556  A
C1882      C1887   1.452       .  S
C1883      C1890   1.452       .  S
C1884      C1885   1.406       .  A
C1885      C1888   1.451       .  S
C1886      C1889   1.451       .  S
C1887      N1894   1.158       .  T
C1888      N1893   1.158       .  T
C1889      N1891   1.157       .  T
C1890      N1892   1.157       .  T
C1895      C1896   1.416       .  A
C1895      C1900   1.414       .  A
C1896      C1897   1.417       .  A
C1896      C1901   1.451       .  S
C1897      C1898   1.416       .  A
C1897      C1904   1.451       .  S
C1898      C1899   1.416       .  A
C1899      C1900   1.416       .  A
C1899      C1902   1.452       .  S
C1900      C1903   1.449       .  S
C1901      N1908   1.157       .  T
C1902      N1907   1.157       .  T
C1903      N1905   1.156       .  T
C1904      N1906   1.157       .  T
C1909      C1910   1.419       .  A
C1909      C1914   1.410       .  A
C1910      C1911   1.421       .  A
C1910      C1915   1.451       .  S
C1911      C1912   1.418       .  A
C1911      C1918   1.451       .  S
C1912      C1913   1.411       .  A
C1913      C1914   1.413       .  A
C1913      C1916   1.446       .  S
C1914      C1917   1.447       .  S
C1915      N1922   1.157       .  T
C1916      N1921   1.157       .  T
C1917      N1919   1.157       .  T
C1918      N1920   1.157       .  T
C1923      C1924   1.402       .  A
C1923      C1928   1.416       .  A
C1924      C1925   1.413       .  A
C1924      C1929   1.451       .  S
C1925      C1926   1.434       .  A
C1925      C1932   1.452       .  S
C1926      C1927   1.420       .  A
C1927      C1928   1.422       .  A
C1927      C1930   1.449       .  S
C1928      C1931   1.450       .  S
C1929      N1936   1.156       .  T
C1930      N1935   1.157       .  T
C1932      N1934   1.158       .  T
C1937      C1938   1.405       .  A
C1937      C1942   1.417   1_565  A
C1938      C1943   1.449       .  S
C1939      C1940   1.426       .  A
C1939      C1946   1.453       .  S
C1942      C1945   1.455       .  S
C1943      N1950   1.157       .  T
C1944      N1949   1.158   1_554  T
C1946      N1948   1.157       .  T
C1951      C1952   1.419       .  A
C1952      C1953   1.409       .  A
C1952      C1957   1.452       .  S
C1953      C1960   1.454       .  S
C1954      C1955   1.410       .  A
C1955      C1956   1.414       .  A
C1955      C1958   1.449       .  S
C1956      C1959   1.452       .  S
C1957      N1964   1.158       .  T
C1958      N1963   1.157       .  T
C1959      N1961   1.157       .  T
C1960      N1962   1.157       .  T
C1965      C1966   1.414       .  A
C1965      C1970   1.412       .  A
C1966      C1967   1.414   1_655  A
C1966      C1971   1.451       .  S
C1967      C1968   1.410       .  A
C1967      C1974   1.449       .  S
C1968      C1969   1.414       .  A
C1969      C1970   1.415   1_455  A
C1969      C1972   1.450       .  S
C1970      C1973   1.451       .  S
C1971      N1978   1.157       .  T
C1972      N1977   1.157       .  T
C1973      N1975   1.157       .  T
C1974      N1976   1.157       .  T
C1979      C1980   1.407       .  A
C1979      C1984   1.413       .  A
C1980      C1981   1.411       .  A
C1980      C1985   1.445       .  S
C1981      C1982   1.413       .  A
C1981      C1988   1.448       .  S
C1982      C1983   1.406       .  A
C1983      C1984   1.410       .  A
C1983      C1986   1.444       .  S
C1984      C1987   1.450       .  S
C1985      N1992   1.156       .  T
C1986      N1991   1.155       .  T
C1987      N1989   1.157       .  T
C1988      N1990   1.157       .  T
C1993      C1994   1.413       .  A
C1993      C1998   1.407       .  A
C1994      C1995   1.407       .  A
C1994      C1999   1.453       .  S
C1995      C1996   1.418       .  A
C1995      C2002   1.452       .  S
C1996      C1997   1.416       .  A
C1997      C1998   1.411       .  A
C1997      C2000   1.451       .  S
C1998      C2001   1.450       .  S
C1999      N2006   1.157       .  T
C2000      N2005   1.157       .  T
C2001      N2003   1.157       .  T
C2002      N2004   1.158       .  T
C2007      C2012   1.403       .  A
C2008      C2009   1.404       .  A
C2009      C2010   1.418       .  A
C2009      C2016   1.450       .  S
C2010      C2011   1.431       .  A
C2011      C2014   1.451       .  S
C2012      C2015   1.453       .  S
C2013      N2020   1.156       .  T
C2014      N2019   1.157       .  T
C2015      N2017   1.157       .  T
C2016      N2018   1.156       .  T
C2021      C2022   1.412       .  A
C2021      C2026   1.407       .  A
C2022      C2023   1.417       .  A
C2022      C2027   1.451       .  S
C2023      C2024   1.421       .  A
C2023      C2030   1.451       .  S
C2024      C2025   1.421       .  A
C2025      C2026   1.418       .  A
C2025      C2028   1.450       .  S
C2026      C2029   1.448       .  S
C2027      N2034   1.157       .  T
C2028      N2033   1.158       .  T
C2029      N2031   1.157       .  T
C2030      N2032   1.158       .  T
C2035      C2036   1.419       .  A
C2035      C2040   1.403       .  A
C2036      C2037   1.426       .  A
C2036      C2041   1.448       .  S
C2037      C2038   1.419       .  A
C2037      C2044   1.449       .  S
C2038      C2039   1.436       .  A
C2039      C2040   1.413       .  A
C2039      C2042   1.453       .  S
C2040      C2043   1.452       .  S
C2041      N2048   1.157       .  T
C2042      N2047   1.158       .  T
C2043      N2045   1.156       .  T
C2044      N2046   1.157       .  T
