geometry optimzed in LAMMPS
_audit_creation_date              2020-11-30 
_audit_creation_method            'lammps2cif' 
_symmetry_space_group_name_H-M    'P1' 
_symmetry_Int_Tables_number       1 
_symmetry_cell_setting            triclinic 
loop_ 
_symmetry_equiv_pos_as_xyz 
  x,y,z 
_cell_length_a                    23.602491866060134 
_cell_length_b                    50.7764480015382 
_cell_length_c                    26.17698933686853 
_cell_angle_alpha                 90.70528881376688 
_cell_angle_beta                  89.0521985504707 
_cell_angle_gamma                 89.6162338817882 
loop_ 
_atom_site_label 
_atom_site_type_symbol 
_atom_site_fract_x 
_atom_site_fract_y 
_atom_site_fract_z 
_atom_site_charge 
O1          O  0.27017962  0.88295930  0.60281004    -0.81110
O2          O  0.27021260  0.88052153  0.37469273    -0.65800
O3          O  0.21868659  0.89222260  0.51148204    -1.12400
C4          C  0.15545519  0.80538321  0.50384463     1.05780
O5          O  0.19011934  0.86062080  0.35394872    -0.79000
O6          O  0.11090806  0.86264124  0.43108751    -0.66580
Ni7        Ni  0.26261487  0.91189732  0.55768094     1.34870
C8          C  0.09309523  0.86724838  0.47642394     0.84520
O9          O  0.26348744  0.92445768  0.43448481    -0.79540
O10         O  0.25708320  0.94162056  0.51439275    -0.89820
C11         C  0.23744138  0.87088834  0.34152556     0.84090
O12         O  0.33700347  0.90442104  0.53137531    -0.68020
O13         O  0.14253599  0.81258863  0.45903037    -0.87310
C14         C  0.35503357  0.88950758  0.49548678     0.84920
C15         C  0.26185337  0.94396065  0.46606737     1.06490
H16         H  0.25754596  0.84020198  0.45195363     0.38290
O17         O  0.22452977  0.85153427  0.45443493    -1.09970
O18         O  0.12322449  0.86302340  0.51536848    -0.66620
Ni19       Ni  0.20312861  0.85601018  0.52485734     1.26350
O20         O  0.32248413  0.87920773  0.46261049    -0.66850
O21         O  0.18623824  0.81928725  0.53341637    -0.79140
C22         C  0.22877479  0.87121553  0.62377865     0.84300
O23         O  0.18899145  0.86199409  0.59685045    -0.66320
Ni24       Ni  0.16850581  0.83804527  0.40984164     1.27450
Ni25       Ni  0.24566935  0.88746121  0.44351794     1.26060
H26         H  0.18323074  0.90162719  0.50947538     0.38850
O27         O  0.77786581  0.88091173  0.59708242    -0.81110
O28         O  0.76911673  0.88406213  0.37834793    -0.65800
O29         O  0.71704253  0.89268252  0.51531868    -1.12400
C30         C  0.66771375  0.80332361  0.50133404     1.05780
O31         O  0.68851818  0.86481854  0.36032033    -0.79000
O32         O  0.60997711  0.85804999  0.43535371    -0.66580
Ni33       Ni  0.76262827  0.91197495  0.56048574     1.34870
C34         C  0.59303936  0.86247712  0.48096626     0.84520
O35         O  0.75723393  0.92731872  0.44092928    -0.79540
O36         O  0.74880045  0.94287254  0.52204998    -0.89820
C37         C  0.73652437  0.87366173  0.34613920     0.84090
O38         O  0.83660733  0.90835143  0.53045979    -0.68020
O39         O  0.65734610  0.81043073  0.45590849    -0.87310
C40         C  0.85358040  0.89199917  0.49669210     0.84920
C41         C  0.75078777  0.94618837  0.47376583     1.06490
H42         H  0.76054990  0.84268799  0.45320150     0.38290
O43         O  0.72632172  0.85312999  0.45640001    -1.09970
O44         O  0.62515180  0.86074066  0.51959658    -0.66620
Ni45       Ni  0.70636791  0.85570617  0.52715560     1.26350
O46         O  0.81978662  0.88191274  0.46523979    -0.66850
O47         O  0.69302600  0.81833927  0.53331821    -0.79140
C48         C  0.73969948  0.87037012  0.62370990     0.84300
O49         O  0.69723721  0.86039735  0.60077464    -0.66320
Ni50       Ni  0.67421283  0.83850554  0.41053742     1.27450
Ni51       Ni  0.74336301  0.88965164  0.44725147     1.26060
H52         H  0.68051074  0.90137970  0.51505761     0.38850
O53         O  0.22366211  0.11902510  0.59786940    -0.81110
O54         O  0.23965557  0.11488488  0.37310689    -0.65800
O55         O  0.28442389  0.10759366  0.51177252    -1.12400
C56         C  0.33001721  0.19742669  0.49880031     1.05780
O57         O  0.32130050  0.13348291  0.35884822    -0.79000
O58         O  0.39364077  0.14371497  0.43239952    -0.66580
Ni59       Ni  0.23833931  0.08839897  0.55723134     1.34870
C60         C  0.41002678  0.13917255  0.47716985     0.84520
O61         O  0.24987995  0.07227211  0.43539648    -0.79540
O62         O  0.25204360  0.05761477  0.51660621    -0.89820
C63         C  0.27490957  0.12501227  0.34206534     0.84090
O64         O  0.16513427  0.09266973  0.52838980    -0.68020
O65         O  0.34098126  0.19066029  0.45260811    -0.87310
C66         C  0.14786454  0.10670031  0.49225716     0.84920
C67         C  0.25416345  0.05386992  0.46829587     1.06490
H68         H  0.24105006  0.15662748  0.45110924     0.38290
O69         O  0.27587532  0.14665226  0.45370935    -1.09970
O70         O  0.37628947  0.13984851  0.51587356    -0.66620
Ni71       Ni  0.29459979  0.14457216  0.52445953     1.26350
O72         O  0.18227766  0.11638440  0.45977441    -0.66850
O73         O  0.30662935  0.18203836  0.53134345    -0.79140
C74         C  0.26286766  0.12982730  0.62286203     0.84300
O75         O  0.30384803  0.14028244  0.59793400    -0.66320
Ni76       Ni  0.32897384  0.16142808  0.40766966     1.27450
Ni77       Ni  0.26100622  0.10995818  0.44307676     1.26060
H78         H  0.32115294  0.09906372  0.51135751     0.38850
O79         O  0.73334742  0.11926256  0.60646542    -0.81110
O80         O  0.73714786  0.11856826  0.37581922    -0.65800
O81         O  0.78618220  0.10904218  0.51285920    -1.12400
C82         C  0.84590965  0.19612816  0.50793531     1.05780
O83         O  0.80871182  0.14476852  0.35421357    -0.79000
O84         O  0.88862167  0.13910657  0.42678641    -0.66580
Ni85       Ni  0.74086743  0.09007856  0.56009613     1.34870
C86         C  0.90939614  0.13531605  0.47046852     0.84520
O87         O  0.74637872  0.07543837  0.43581952    -0.79540
O88         O  0.74574899  0.05989559  0.51638735    -0.89820
C89         C  0.76589629  0.13099998  0.34251442     0.84090
O90         O  0.66699731  0.09813474  0.53619995    -0.68020
O91         O  0.86149532  0.18873905  0.46330899    -0.87310
C92         C  0.64920459  0.11164590  0.49951063     0.84920
C93         C  0.74515045  0.05660243  0.46805500     1.06490
H94         H  0.74340160  0.16006203  0.45623810     0.38290
O95         O  0.77764229  0.14954096  0.45697727    -1.09970
O96         O  0.88061134  0.13935177  0.51181305    -0.66620
Ni97       Ni  0.79994712  0.14542772  0.52647104     1.26350
O98         O  0.68254530  0.11977440  0.46437859    -0.66850
O99         O  0.81374220  0.18233516  0.53643654    -0.79140
C100        C  0.77474711  0.13120093  0.62602854     0.84300
O101        O  0.81489352  0.13984442  0.59788968    -0.66320
Ni102      Ni  0.83247151  0.16488344  0.41230205     1.27450
Ni103      Ni  0.76056474  0.11288846  0.44496350     1.26060
H104        H  0.82208039  0.09980535  0.51076743     0.38850
O105        O  0.31510766  0.86498737  0.85769172    -0.81110
O106        O  0.30458452  0.86034579  0.09508966    -0.65800
O107        O  0.27182636  0.85200729  0.95156984    -1.12400
C108        C  0.23699761  0.94461045  0.96986444     1.05780
O109        O  0.22072978  0.87796583  0.09486205    -0.79000
O110        O  0.15610719  0.90275809  0.02938753    -0.66580
Ni111      Ni  0.32236551  0.83635366  0.90335158     1.34870
C112        C  0.14092543  0.88914611  0.99131560     0.84520
O113        O  0.31232280  0.81794634  0.02782812    -0.79540
O114        O  0.33507025  0.80686544  0.94626181    -0.89820
C115        C  0.26213218  0.87004097  0.12023869     0.84090
O116        O  0.38798143  0.85300212  0.92667589    -0.68020
O117        O  0.23555712  0.94079158  0.01806003    -0.87310
C118        C  0.40437071  0.86185326  0.96898514     0.84920
C119        C  0.33197132  0.80174955  0.99368988     1.06490
H120        H  0.31204390  0.90126620  0.01012604     0.38290
O121        O  0.27687776  0.89163160  0.01024237    -1.09970
O122        O  0.17598866  0.88123935  0.95731065    -0.66620
Ni123      Ni  0.25390001  0.88864133  0.94169961     1.26350
O124        O  0.37244221  0.86254092  0.00890307    -0.66850
O125        O  0.23884449  0.92613822  0.93587708    -0.79140
C126        C  0.26868500  0.87291319  0.84051094     0.84300
O127        O  0.23310281  0.88339294  0.87150364    -0.66320
Ni128      Ni  0.22863569  0.90940466  0.05704489     1.27450
Ni129      Ni  0.29314154  0.85500248  0.02168683     1.26060
H130        H  0.23754566  0.84180552  0.95043436     0.38850
O131        O  0.80924875  0.85899689  0.85585960    -0.81110
O132        O  0.80141974  0.86061830  0.10027910    -0.65800
O133        O  0.77156520  0.85134725  0.95658129    -1.12400
C134        C  0.73653682  0.94426863  0.97187051     1.05780
O135        O  0.71912771  0.87981662  0.09981938    -0.79000
O136        O  0.65632430  0.90489951  0.03288585    -0.66580
Ni137      Ni  0.82843496  0.83688442  0.91200624     1.34870
C138        C  0.64002515  0.89113381  0.99556609     0.84520
O139        O  0.80591254  0.81805679  0.03523426    -0.79540
O140        O  0.85328512  0.81166705  0.96117531    -0.89820
C141        C  0.75921656  0.87045685  0.12510853     0.84090
O142        O  0.88397592  0.86159346  0.93238822    -0.68020
O143        O  0.73793448  0.94114844  0.02020820    -0.87310
C144        C  0.90153415  0.86573002  0.97730266     0.84920
C145        C  0.83802335  0.80423539  0.00547681     1.06490
H146        H  0.81225370  0.90077137  0.01383400     0.38290
O147        O  0.77667843  0.89158354  0.01451720    -1.09970
O148        O  0.67522462  0.88100600  0.96343089    -0.66620
Ni149      Ni  0.75341108  0.88789956  0.94636313     1.26350
O150        O  0.87127588  0.86125243  0.01705791    -0.66850
O151        O  0.73787953  0.92528436  0.93903757    -0.79140
C152        C  0.76452077  0.87133165  0.84371768     0.84300
O153        O  0.73214910  0.88227035  0.87692069    -0.66320
Ni154      Ni  0.72947436  0.91048449  0.06054470     1.27450
Ni155      Ni  0.79062194  0.85506064  0.02734817     1.26060
H156        H  0.73789152  0.84073289  0.95383631     0.38850
O157        O  0.17670033  0.13566224  0.85920967    -0.81110
O158        O  0.18916316  0.14128915  0.10023769    -0.65800
O159        O  0.21894995  0.14794741  0.95555171    -1.12400
C160        C  0.25059808  0.05521934  0.97078425     1.05780
O161        O  0.27132738  0.12094197  0.09952954    -0.79000
O162        O  0.33285843  0.09538844  0.02901227    -0.66580
Ni163      Ni  0.16601924  0.16283555  0.91024969     1.34870
C164        C  0.34898510  0.10957144  0.99217005     0.84520
O165        O  0.18328760  0.18283807  0.03450005    -0.79540
O166        O  0.15129033  0.19196519  0.95590097    -0.89820
C167        C  0.23107166  0.13188461  0.12455626     0.84090
O168        O  0.10207346  0.14429597  0.93574235    -0.68020
O169        O  0.24974314  0.05904452  0.01907207    -0.87310
C170        C  0.08678258  0.13768400  0.98046384     0.84920
C171        C  0.16075139  0.19832953  0.00217695     1.06490
H172        H  0.17785039  0.09979724  0.01461326     0.38290
O173        O  0.21355873  0.10886543  0.01423531    -1.09970
O174        O  0.31452854  0.11889969  0.96030011    -0.66620
Ni175      Ni  0.23684866  0.11132833  0.94508422     1.26350
O176        O  0.11920760  0.13903772  0.01886572    -0.66850
O177        O  0.25192234  0.07372194  0.93777069    -0.79140
C178        C  0.22301796  0.12551731  0.84319273     0.84300
O179        O  0.25795781  0.11606168  0.87455993    -0.66320
Ni180      Ni  0.25982523  0.09014863  0.05922788     1.27450
Ni181      Ni  0.19946214  0.14561993  0.02680662     1.26060
H182        H  0.25317901  0.15819179  0.95257056     0.38850
O183        O  0.68237750  0.13433364  0.85607797    -0.81110
O184        O  0.69174631  0.14210495  0.09877429    -0.65800
O185        O  0.72038838  0.14692582  0.95336057    -1.12400
C186        C  0.74626429  0.05452778  0.97313396     1.05780
O187        O  0.77341290  0.12179358  0.09661660    -0.79000
O188        O  0.83344000  0.09457293  0.02853607    -0.66580
Ni189      Ni  0.66660235  0.16068236  0.90793680     1.34870
C190        C  0.84914590  0.10969130  0.99306383     0.84520
O191        O  0.68749165  0.18271150  0.03039553    -0.79540
O192        O  0.64695879  0.18892224  0.95426523    -0.89820
C193        C  0.73444266  0.13290201  0.12246613     0.84090
O194        O  0.60666591  0.13966340  0.93323567    -0.68020
O195        O  0.74807758  0.05902178  0.02110557    -0.87310
C196        C  0.58878762  0.13611126  0.97863189     0.84920
C197        C  0.66017969  0.19684895  0.99887937     1.06490
H198        H  0.67695566  0.09968384  0.01442702     0.38290
O199        O  0.71312204  0.10848319  0.01366872    -1.09970
O200        O  0.81473545  0.11814777  0.96052266    -0.66620
Ni201      Ni  0.73764271  0.11019612  0.94471722     1.26350
O202        O  0.62017930  0.14009408  0.01717357    -0.66850
O203        O  0.75138917  0.07239568  0.93904367    -0.79140
C204        C  0.73099470  0.12559045  0.84254057     0.84300
O205        O  0.76175142  0.11448480  0.87519044    -0.66320
Ni206      Ni  0.76019540  0.09041144  0.05914163     1.27450
Ni207      Ni  0.70122373  0.14546290  0.02471664     1.26060
H208        H  0.75425927  0.15726249  0.94929192     0.38850
O209        O  0.42215840  0.36523638  0.68525812    -0.81110
O210        O  0.44203524  0.35967667  0.44474643    -0.65800
O211        O  0.46769529  0.35264115  0.58958311    -1.12400
C212        C  0.50012218  0.44494267  0.57596280     1.05780
O213        O  0.52334249  0.37985385  0.44485439    -0.79000
O214        O  0.58334982  0.40357105  0.51555173    -0.66580
Ni215      Ni  0.41374549  0.33800365  0.63496721     1.34870
C216        C  0.59746350  0.38938777  0.55269743     0.84520
O217        O  0.43658894  0.31782883  0.51089578    -0.79540
O218        O  0.40064737  0.30931568  0.58907141    -0.89820
C219        C  0.48360274  0.36959264  0.41980377     0.84090
O220        O  0.35099714  0.35681989  0.60999832    -0.68020
O221        O  0.50196635  0.44132065  0.52763668    -0.87310
C222        C  0.33607491  0.36239873  0.56513463     0.84920
C223        C  0.41222478  0.30255291  0.54301783     1.06490
H224        H  0.42760056  0.40101070  0.53128273     0.38290
O225        O  0.46329213  0.39188103  0.53136792    -1.09970
O226        O  0.56203126  0.38148261  0.58571364    -0.66620
Ni227      Ni  0.48424722  0.38910688  0.60068875     1.26350
O228        O  0.36981703  0.36104785  0.52665922    -0.66850
O229        O  0.49870355  0.42641437  0.60874145    -0.79140
C230        C  0.46844944  0.37390160  0.70190390     0.84300
O231        O  0.50384069  0.38391257  0.67089577    -0.66320
Ni232      Ni  0.51155648  0.41039605  0.48640496     1.27450
Ni233      Ni  0.45074042  0.35509740  0.51838684     1.26060
H234        H  0.50178942  0.34224237  0.59264454     0.38850
O235        O  0.92243574  0.36854393  0.69071282    -0.81110
O236        O  0.93708062  0.35887951  0.45295224    -0.65800
O237        O  0.96646415  0.35384994  0.59649138    -1.12400
C238        C  0.00329249  0.44580795  0.57786962     1.05780
O239        O  0.01813004  0.37987748  0.44476158    -0.79000
O240        O  0.08183873  0.40136666  0.51616562    -0.66580
Ni241      Ni  0.91289259  0.33990489  0.64350939     1.34870
C242        C  0.09688884  0.38846975  0.55485385     0.84520
O243        O  0.93228726  0.31819229  0.52040779    -0.79540
O244        O  0.89945242  0.31001261  0.60009085    -0.89820
C245        C  0.97635423  0.36840519  0.42484695     0.84090
O246        O  0.84852719  0.35763126  0.61807248    -0.68020
O247        O  0.00504635  0.44137707  0.52981039    -0.87310
C248        C  0.83459213  0.36392473  0.57328850     0.84920
C249        C  0.90903953  0.30320947  0.55371228     1.06490
H250        H  0.92718808  0.40173595  0.53559248     0.38290
O251        O  0.96275351  0.39232590  0.53588260    -1.09970
O252        O  0.06228260  0.38214506  0.58996430    -0.66620
Ni253      Ni  0.98462871  0.39040820  0.60549596     1.26350
O254        O  0.86832837  0.36258777  0.53492422    -0.66850
O255        O  0.00030424  0.42776945  0.61162823    -0.79140
C256        C  0.96983208  0.37581359  0.70740027     0.84300
O257        O  0.00495456  0.38585780  0.67606825    -0.66320
Ni258      Ni  0.01029508  0.41009643  0.48863616     1.27450
Ni259      Ni  0.94834051  0.35543592  0.52572493     1.26060
H260        H  0.00029940  0.34328513  0.59935751     0.38850
O261        O  0.06978710  0.63439306  0.69104232    -0.81110
O262        O  0.04658948  0.64441567  0.45393124    -0.65800
O263        O  0.02670083  0.64943688  0.59907440    -1.12400
C264        C  0.00155660  0.55676346  0.57784166     1.05780
O265        O  0.96705517  0.62202150  0.45596909    -0.79000
O266        O  0.91505221  0.59317925  0.52577962    -0.66580
Ni267      Ni  0.08247317  0.66248214  0.64361295     1.34870
C268        C  0.89697288  0.60952623  0.55897915     0.84520
O269        O  0.05903383  0.68506618  0.52337980    -0.79540
O270        O  0.09788175  0.69201215  0.60057482    -0.89820
C271        C  0.00302356  0.63527423  0.43123753     0.84090
O272        O  0.14471660  0.64336365  0.61339993    -0.68020
O273        O  0.00545454  0.56050710  0.52975748    -0.87310
C274        C  0.15867964  0.63879524  0.56692710     0.84920
C275        C  0.08688197  0.69923563  0.55528255     1.06490
H276        H  0.06818725  0.60213854  0.53710548     0.38290
O277        O  0.03165162  0.61083110  0.53761466    -1.09970
O278        O  0.93039814  0.62097014  0.58972807    -0.66620
Ni279      Ni  0.00807474  0.61290033  0.60641984     1.26350
O280        O  0.12383093  0.64099102  0.53047909    -0.66850
O281        O  0.99337740  0.57528967  0.61110352    -0.79140
C282        C  0.02106099  0.62762250  0.70767033     0.84300
O283        O  0.98624961  0.61776105  0.67657488    -0.66320
Ni284      Ni  0.98725215  0.59127172  0.49241643     1.27450
Ni285      Ni  0.04284718  0.64779756  0.52766904     1.26060
H286        H  0.99296891  0.66007098  0.60448064     0.38850
O287        O  0.57107227  0.63337407  0.67941221    -0.81110
O288        O  0.55993758  0.63958955  0.44565009    -0.65800
O289        O  0.52461838  0.64748437  0.58896691    -1.12400
C290        C  0.49518707  0.55501206  0.57406816     1.05780
O291        O  0.47828644  0.61906006  0.44322203    -0.79000
O292        O  0.41344603  0.59568019  0.51204104    -0.66580
Ni293      Ni  0.57364746  0.66323510  0.63637288     1.34870
C294        C  0.39597981  0.60908362  0.55025646     0.84520
O295        O  0.56563869  0.68167939  0.51335668    -0.79540
O296        O  0.57980325  0.69368782  0.59534145    -0.89820
C297        C  0.51892899  0.63018255  0.41989854     0.84090
O298        O  0.64351162  0.65020632  0.60959336    -0.68020
O299        O  0.49506126  0.55821037  0.52572156    -0.87310
C300        C  0.66012376  0.64090035  0.56688533     0.84920
C301        C  0.57969588  0.69866618  0.54770478     1.06490
H302        H  0.56806225  0.59855807  0.53077301     0.38290
O303        O  0.53224109  0.60787318  0.53050668    -1.09970
O304        O  0.42881320  0.61775605  0.58463667    -0.66620
Ni305      Ni  0.50773204  0.61105919  0.59952157     1.26350
O306        O  0.62718208  0.63723521  0.52934121    -0.66850
O307        O  0.49433842  0.57382273  0.60707121    -0.79140
C308        C  0.52517965  0.62578108  0.69932686     0.84300
O309        O  0.48744005  0.61658515  0.67022991    -0.66320
Ni310      Ni  0.48744145  0.58884447  0.48454643     1.27450
Ni311      Ni  0.54738328  0.64452846  0.51892974     1.26060
H312        H  0.48969334  0.65752494  0.59048507     0.38850
O313        O  0.97881648  0.38363350  0.94659963    -0.81110
O314        O  0.98154377  0.38478830  0.17438076    -0.65800
O315        O  0.03244003  0.39420192  0.03663784    -1.12400
C316        C  0.08619527  0.30476234  0.04571698     1.05780
O317        O  0.06161730  0.36475637  0.19277597    -0.79000
O318        O  0.14090402  0.35780928  0.11805790    -0.66580
Ni319      Ni  0.98735905  0.41337055  0.99077846     1.34870
C320        C  0.15899034  0.36388198  0.07388701     0.84520
O321        O  0.98969246  0.42817010  0.11408520    -0.79540
O322        O  0.99360949  0.44384350  0.03366007    -0.89820
C323        C  0.01371506  0.37419389  0.20681508     0.84090
O324        O  0.91314106  0.40648971  0.01701625    -0.68020
O325        O  0.09389251  0.31054338  0.09259043    -0.87310
C326        C  0.89587401  0.39207595  0.05305311     0.84920
C327        C  0.99131842  0.44711816  0.08206960     1.06490
H328        H  0.99080626  0.34387575  0.09445662     0.38290
O329        O  0.02494640  0.35426588  0.09332015    -1.09970
O330        O  0.12768412  0.36370650  0.03444140    -0.66620
Ni331      Ni  0.04743709  0.35759317  0.02293172     1.26350
O332        O  0.92864305  0.38290471  0.08666784    -0.66850
O333        O  0.06359897  0.32046918  0.01384441    -0.79140
C334        C  0.01951824  0.37167832  0.92400955     0.84300
O335        O  0.06067145  0.36268916  0.94997981    -0.66320
Ni336      Ni  0.07595152  0.33871306  0.13980333     1.27450
Ni337      Ni  0.00578025  0.39067294  0.10500591     1.26060
H338        H  0.06818127  0.40332821  0.03806549     0.38850
O339        O  0.47412375  0.38145720  0.94393784    -0.81110
O340        O  0.48900685  0.38524194  0.16955099    -0.65800
O341        O  0.53293734  0.39262802  0.02975811    -1.12400
C342        C  0.58273663  0.30298930  0.04170057     1.05780
O343        O  0.57142965  0.36652801  0.18255418    -0.79000
O344        O  0.64430900  0.35601443  0.10638828    -0.66580
Ni345      Ni  0.48700663  0.41184354  0.98519542     1.34870
C346        C  0.65951618  0.36226949  0.06149218     0.84520
O347        O  0.49607068  0.42773295  0.10708375    -0.79540
O348        O  0.49808242  0.44265172  0.02599294    -0.89820
C349        C  0.52496014  0.37573882  0.19993143     0.84090
O350        O  0.41382990  0.40684165  0.01532664    -0.68020
O351        O  0.59247834  0.30941611  0.08788879    -0.87310
C352        C  0.39676591  0.39294541  0.05212830     0.84920
C353        C  0.49804128  0.44628662  0.07432282     1.06490
H354        H  0.49195149  0.34348150  0.09159299     0.38290
O355        O  0.52640191  0.35354079  0.08823995    -1.09970
O356        O  0.62619028  0.36140493  0.02368546    -0.66620
Ni357      Ni  0.54530624  0.35571894  0.01701428     1.26350
O358        O  0.43095156  0.38348579  0.08439685    -0.66850
O359        O  0.55980782  0.31842269  0.00950969    -0.79140
C360        C  0.51348668  0.36960026  0.91929342     0.84300
O361        O  0.55498819  0.35985216  0.94362643    -0.66320
Ni362      Ni  0.57971773  0.33863540  0.13307084     1.27450
Ni363      Ni  0.50956882  0.39016824  0.09905310     1.26060
H364        H  0.56919533  0.40135017  0.02942427     0.38850
O365        O  0.52851929  0.61980669  0.94062165    -0.81110
O366        O  0.51578554  0.61808184  0.16888796    -0.65800
O367        O  0.47206326  0.60936673  0.02987926    -1.12400
C368        C  0.41079152  0.69733880  0.04613030     1.05780
O369        O  0.43183106  0.63495404  0.18476288    -0.79000
O370        O  0.35858230  0.64192572  0.10961678    -0.66580
Ni371      Ni  0.51796155  0.59001228  0.98314013     1.34870
C372        C  0.34414702  0.63616786  0.06433159     0.84520
O373        O  0.51074543  0.57524128  0.10560583    -0.79540
O374        O  0.50889240  0.55957610  0.02442608    -0.89820
C375        C  0.47912622  0.62697123  0.20076284     0.84090
O376        O  0.59079682  0.59648535  0.01080406    -0.68020
O377        O  0.40159991  0.69047454  0.09197935    -0.87310
C378        C  0.60671289  0.61077229  0.04773668     0.84920
C379        C  0.50898427  0.55639408  0.07271044     1.06490
H380        H  0.50877033  0.65958821  0.09292821     0.38290
O381        O  0.47543829  0.64879069  0.08959822    -1.09970
O382        O  0.37749663  0.63882405  0.02628818    -0.66620
Ni383      Ni  0.45720834  0.64604703  0.01863942     1.26350
O384        O  0.57285790  0.61999270  0.08182810    -0.66850
O385        O  0.43843221  0.68304424  0.01325923    -0.79140
C386        C  0.48824016  0.63153757  0.91868649     0.84300
O387        O  0.44758435  0.64145471  0.94549782    -0.66320
Ni388      Ni  0.41926525  0.66203184  0.13588683     1.27450
Ni389      Ni  0.49502240  0.61250139  0.09878478     1.26060
H390        H  0.43634720  0.60018791  0.03064126     0.38850
O391        O  0.02588974  0.61920349  0.94736564    -0.81110
O392        O  0.01291166  0.62058303  0.17927859    -0.65800
O393        O  0.96994164  0.61018967  0.03936493    -1.12400
C394        C  0.91137092  0.69872785  0.05144384     1.05780
O395        O  0.92894930  0.63822173  0.19414699    -0.79000
O396        O  0.85585079  0.64402159  0.11868382    -0.66580
Ni397      Ni  0.01507030  0.59031980  0.99247635     1.34870
C398        C  0.84199933  0.63738010  0.07387162     0.84520
O399        O  0.00965087  0.57657639  0.11616964    -0.79540
O400        O  0.00701805  0.56044818  0.03527928    -0.89820
C401        C  0.97649475  0.63062239  0.21064230     0.84090
O402        O  0.08809915  0.59718010  0.01886817    -0.68020
O403        O  0.89982766  0.69246738  0.09738272    -0.87310
C404        C  0.10506228  0.61141030  0.05550454     0.84920
C405        C  0.00898066  0.55748036  0.08352904     1.06490
H406        H  0.00677974  0.66095231  0.10081845     0.38290
O407        O  0.97334469  0.65018847  0.09790709    -1.09970
O408        O  0.87516241  0.63991446  0.03534879    -0.66620
Ni409      Ni  0.95542724  0.64674947  0.02700915     1.26350
O410        O  0.07151992  0.62118904  0.08967652    -0.66850
O411        O  0.93865511  0.68376173  0.01973567    -0.79140
C412        C  0.98682233  0.63248227  0.92701575     0.84300
O413        O  0.94570854  0.64172053  0.95413905    -0.66320
Ni414      Ni  0.91690592  0.66448676  0.14329379     1.27450
Ni415      Ni  0.99324569  0.61396317  0.10836111     1.26060
H416        H  0.93408562  0.60114005  0.04065919     0.38850
C417        C  0.75648054  0.63440221  0.02050038    -0.05990
C418        C  0.78346460  0.62768036  0.06601527    -0.00070
C419        C  0.75291942  0.61329128  0.10363895    -0.08640
C420        C  0.69509443  0.60833726  0.09611768    -0.06020
C421        C  0.66768971  0.61638373  0.05189612    -0.00080
C422        C  0.69877805  0.62923703  0.01288079    -0.08550
C423        C  0.67077027  0.63828608  0.96424665     0.61830
H424        H  0.78067656  0.64434118  0.99118254     0.12520
H425        H  0.67060152  0.59805719  0.12491911     0.12540
C426        C  0.78103385  0.60233532  0.15077311     0.62060
F427        F  0.70706744  0.65301603  0.93408532    -0.23100
F428        F  0.62387607  0.65376972  0.97636115    -0.20430
F429        F  0.65421194  0.61662664  0.93586547    -0.20110
F430        F  0.79060301  0.62239076  0.18569884    -0.20160
F431        F  0.83191443  0.59025319  0.13716287    -0.20480
F432        F  0.74747536  0.58370204  0.17453837    -0.23160
C433        C  0.25715545  0.61740158  0.10082849    -0.05990
C434        C  0.28511770  0.62661301  0.05713709    -0.00070
C435        C  0.25406101  0.62878349  0.01116654    -0.08640
C436        C  0.19569360  0.62304708  0.01204228    -0.06020
C437        C  0.16710246  0.61639927  0.05735003    -0.00080
C438        C  0.19876789  0.61333736  0.10213989    -0.08550
C439        C  0.17011580  0.61080633  0.15290928     0.61830
H440        H  0.28078613  0.61524565  0.13563833     0.12520
H441        H  0.17132086  0.62468124  0.97765130     0.12540
C442        C  0.28189705  0.63657414  0.96135116     0.62060
F443        F  0.20755284  0.60622931  0.19210030    -0.23100
F444        F  0.13106506  0.59069703  0.15241134    -0.20430
F445        F  0.14375278  0.63466167  0.16155773    -0.20110
F446        F  0.32388296  0.61841444  0.94985309    -0.20160
F447        F  0.30468272  0.66151036  0.96567550    -0.20480
F448        F  0.24439039  0.63669850  0.92124107    -0.23160
C449        C  0.45093823  0.48860347  0.09297257    -0.05990
C450        C  0.50124707  0.47383147  0.09165600    -0.00070
C451        C  0.55415693  0.48670071  0.09415565    -0.08640
C452        C  0.55517063  0.51439461  0.09374609    -0.06020
C453        C  0.50500229  0.52907796  0.09008584    -0.00080
C454        C  0.45194765  0.51625794  0.09177379    -0.08550
C455        C  0.39691951  0.53180258  0.08904064     0.61830
H456        H  0.41103425  0.47827934  0.09051579     0.12520
H457        H  0.59521873  0.52467579  0.09200982     0.12540
C458        C  0.60918819  0.47106318  0.09391234     0.62060
F459        F  0.35001356  0.51574999  0.09404995    -0.23100
F460        F  0.39387068  0.54437612  0.04258356    -0.20430
F461        F  0.39472137  0.55044875  0.12799823    -0.20110
F462        F  0.61536238  0.45709080  0.04844422    -0.20160
F463        F  0.60849518  0.45361341  0.13406874    -0.20480
F464        F  0.65580249  0.48722608  0.09914173    -0.23160
C465        C  0.74151530  0.38590960  0.09545096    -0.05990
C466        C  0.71897468  0.37125757  0.05489636    -0.00070
C467        C  0.75493678  0.36388299  0.01304997    -0.08640
C468        C  0.81234595  0.37151063  0.01382399    -0.06020
C469        C  0.83486040  0.38561426  0.05525160    -0.00080
C470        C  0.79851399  0.39327209  0.09649982    -0.08550
C471        C  0.81623988  0.40948636  0.14232177     0.61830
H472        H  0.71401130  0.39170697  0.12733396     0.12520
H473        H  0.84061501  0.36605803  0.98235689     0.12540
C474        C  0.73366793  0.34742521  0.96869506     0.62060
F475        F  0.78268118  0.43189755  0.14615772    -0.23100
F476        F  0.87182560  0.41726915  0.13943597    -0.20430
F477        F  0.80863922  0.39482893  0.18606464    -0.20110
F478        F  0.69386050  0.36169003  0.94243405    -0.20160
F479        F  0.70947992  0.32450590  0.98662171    -0.20480
F480        F  0.77688781  0.34045667  0.93464867    -0.23160
C481        C  0.32010023  0.36410076  0.08453803    -0.05990
C482        C  0.33490977  0.38665036  0.05687558    -0.00070
C483        C  0.29078171  0.40179034  0.03436890    -0.08640
C484        C  0.23409512  0.39343829  0.04028718    -0.06020
C485        C  0.21977590  0.37109740  0.06848949    -0.00080
C486        C  0.26359513  0.35599421  0.09083303    -0.08550
C487        C  0.25147526  0.33096792  0.12037712     0.61830
H488        H  0.35356631  0.35255496  0.10128404     0.12520
H489        H  0.20003803  0.40455659  0.02336238     0.12540
C490        C  0.30231946  0.42693457  0.00505483     0.62060
F491        F  0.30060632  0.31720122  0.13114264    -0.23100
F492        F  0.21745306  0.31444972  0.09209373    -0.20430
F493        F  0.22465438  0.33720911  0.16632676    -0.20110
F494        F  0.33082073  0.42100794  0.95972589    -0.20160
F495        F  0.33432352  0.44393529  0.03433153    -0.20480
F496        F  0.25276728  0.44003754  0.99295449    -0.23160
C497        C  0.04871178  0.48603209  0.09892521    -0.05990
C498        C  0.99470235  0.47470085  0.10023323    -0.00070
C499        C  0.94623470  0.49118415  0.10518274    -0.08640
C500        C  0.95351444  0.51867955  0.10611428    -0.06020
C501        C  0.00726232  0.52996913  0.10072971    -0.00080
C502        C  0.05587151  0.51350683  0.09817472    -0.08550
C503        C  0.11480739  0.52492645  0.09277942     0.61830
H504        H  0.08518662  0.47309439  0.09432819     0.12520
H505        H  0.91687114  0.53165725  0.10735997     0.12540
C506        C  0.88717592  0.47985067  0.10878587     0.62060
F507        F  0.15622876  0.50549701  0.09011257    -0.23100
F508        F  0.12528924  0.54070973  0.13476651    -0.20430
F509        F  0.11905797  0.53973734  0.04891749    -0.20110
F510        F  0.88195577  0.46652230  0.15420883    -0.20160
F511        F  0.87768711  0.46282714  0.06819542    -0.20480
F512        F  0.84574215  0.49927836  0.10834488    -0.23160
C513        C  0.45728011  0.63137159  0.34529586    -0.05990
C514        C  0.51312234  0.63239081  0.36320713    -0.00070
C515        C  0.55850289  0.63161342  0.32701451    -0.08640
C516        C  0.54586247  0.62951469  0.27430795    -0.06020
C517        C  0.48968628  0.62765572  0.25694051    -0.00080
C518        C  0.44449341  0.62803926  0.29360990    -0.08550
C519        C  0.38258072  0.62402142  0.27961564     0.61830
H520        H  0.42262210  0.63260848  0.37284898     0.12520
H521        H  0.57997426  0.62939599  0.24614119     0.12540
C522        C  0.61963854  0.63248092  0.34371985     0.62060
F523        F  0.34855904  0.61943552  0.32216379    -0.23100
F524        F  0.37774873  0.60237257  0.24736738    -0.20430
F525        F  0.36171347  0.64625497  0.25617789    -0.20110
F526        F  0.63054887  0.61167999  0.37581563    -0.20160
F527        F  0.62952830  0.65597442  0.36919492    -0.20480
F528        F  0.65712876  0.63068450  0.30255721    -0.23160
C529        C  0.46036454  0.62873964  0.77478895    -0.05990
C530        C  0.51625537  0.62833390  0.75553245    -0.00070
C531        C  0.56178829  0.63129192  0.79012832    -0.08640
C532        C  0.54901692  0.63499882  0.84219448    -0.06020
C533        C  0.49344120  0.63395224  0.86201897    -0.00080
C534        C  0.44811032  0.63093107  0.82754895    -0.08550
C535        C  0.38771852  0.62793880  0.84610221     0.61830
H536        H  0.42609663  0.62664360  0.74808451     0.12520
H537        H  0.58328870  0.63782975  0.86861151     0.12540
C538        C  0.62397698  0.62945565  0.77360126     0.62060
F539        F  0.35016937  0.62533792  0.80628006    -0.23100
F540        F  0.37152491  0.64985754  0.87468835    -0.20430
F541        F  0.38441401  0.60547881  0.87516919    -0.20110
F542        F  0.63880799  0.65130988  0.74547030    -0.20160
F543        F  0.63331324  0.60677097  0.74473707    -0.20480
F544        F  0.65976177  0.62839141  0.81493915    -0.23160
C545        C  0.82057756  0.64193848  0.57735222    -0.05990
C546        C  0.83543708  0.61649164  0.56009920    -0.00070
C547        C  0.79192285  0.59939379  0.54241295    -0.08640
C548        C  0.73534025  0.60850750  0.54369163    -0.05540
C549        C  0.72088850  0.63373201  0.56195233    -0.00080
C550        C  0.76423751  0.65100483  0.57824036    -0.08550
C551        C  0.75166157  0.67927786  0.59490432     0.61830
H552        H  0.85385817  0.65499383  0.58977533     0.12520
H553        H  0.70146410  0.59575529  0.53133937     0.12540
C554        C  0.80398983  0.57145506  0.52338134     0.62060
F555        F  0.80066434  0.69388615  0.59965676    -0.23100
F556        F  0.72382594  0.67973878  0.64178249    -0.20430
F557        F  0.71836241  0.69136952  0.55897783    -0.20110
F558        F  0.83566201  0.55806765  0.55879900    -0.20160
F559        F  0.83312369  0.57204416  0.47715461    -0.20480
F560        F  0.75467119  0.55739929  0.51587161    -0.23160
C561        C  0.24056072  0.61172392  0.59105353    -0.05990
C562        C  0.21829995  0.63007793  0.55661922    -0.00070
C563        C  0.25501629  0.64034250  0.51775115    -0.08640
C564        C  0.31242815  0.63243713  0.51689969    -0.06020
C565        C  0.33468388  0.61543636  0.55333423    -0.00080
C566        C  0.29791235  0.60398232  0.58965293    -0.08550
C567        C  0.31879170  0.58271769  0.62494417     0.61830
H568        H  0.21231715  0.60341497  0.61954756     0.12520
H569        H  0.34092640  0.64025199  0.48795810     0.12540
C570        C  0.23889492  0.65998831  0.47682980     0.62060
F571        F  0.27569408  0.57304093  0.65577585    -0.23100
F572        F  0.36060644  0.59256762  0.65604438    -0.20430
F573        F  0.34060822  0.56204421  0.59585755    -0.20110
F574        F  0.27593701  0.68098727  0.47815656    -0.20160
F575        F  0.18493710  0.67019988  0.48182833    -0.20480
F576        F  0.24394629  0.64780037  0.42940757    -0.23160
C577        C  0.93699257  0.63225409  0.29933579    -0.05990
C578        C  0.98545357  0.63274312  0.26746876    -0.00070
C579        C  0.03825912  0.63818271  0.29061584    -0.08640
C580        C  0.04178830  0.64047529  0.34396922    -0.06020
C581        C  0.99407387  0.63816022  0.37552721    -0.00080
C582        C  0.93990612  0.63545971  0.35270010    -0.08550
C583        C  0.88473791  0.63613725  0.38361923     0.61830
H584        H  0.89616590  0.62897810  0.28216433     0.12520
H585        H  0.08265105  0.64282892  0.36162594     0.12540
C586        C  0.09130311  0.64053586  0.25957774     0.62060
F587        F  0.83864900  0.64119250  0.35306756    -0.23100
F588        F  0.88633606  0.65587920  0.42047332    -0.20430
F589        F  0.87608903  0.61210939  0.40663984    -0.20110
F590        F  0.08262345  0.65881764  0.22168433    -0.20160
F591        F  0.10319455  0.61577457  0.24008509    -0.20480
F592        F  0.13715922  0.64870499  0.28792732    -0.23160
C593        C  0.94573356  0.63152900  0.83981001    -0.05990
C594        C  0.99207520  0.63689079  0.87113232    -0.00070
C595        C  0.04572022  0.64160809  0.84798614    -0.08640
C596        C  0.05269029  0.63760213  0.79528591    -0.06020
C597        C  0.00749453  0.63072497  0.76360526    -0.00080
C598        C  0.95215085  0.62870176  0.78607181    -0.08550
C599        C  0.90002396  0.62343866  0.75431023     0.61830
H600        H  0.90495636  0.62818407  0.85806958     0.12520
H601        H  0.09479910  0.63966814  0.77880431     0.12540
C602        C  0.09761679  0.64918141  0.87821872     0.62060
F603        F  0.85071300  0.62430414  0.78369773    -0.23100
F604        F  0.90402839  0.59869855  0.73178599    -0.20430
F605        F  0.89531712  0.64233770  0.71694663    -0.20110
F606        F  0.12607956  0.62654161  0.89188384    -0.20160
F607        F  0.08296152  0.66371135  0.92157165    -0.20480
F608        F  0.13395486  0.66445236  0.84913101    -0.23160
C609        C  0.01376005  0.34957926  0.28799517    -0.05990
C610        C  0.99695416  0.37241473  0.26199925    -0.00070
C611        C  0.96813554  0.39276083  0.28989892    -0.08640
C612        C  0.95737969  0.38941595  0.34262653    -0.06020
C613        C  0.97561767  0.36692804  0.36843502    -0.00080
C614        C  0.00457813  0.34672914  0.34094578    -0.08550
C615        C  0.02770748  0.32283003  0.36811994     0.61830
H616        H  0.03585568  0.33415232  0.26661257     0.12520
H617        H  0.93697772  0.40501703  0.36490196     0.12540
C618        C  0.95118647  0.41840230  0.26517346     0.62060
F619        F  0.05324124  0.30499685  0.33440924    -0.23100
F620        F  0.98402507  0.31019016  0.39347340    -0.20430
F621        F  0.06769336  0.33065598  0.40313924    -0.20110
F622        F  0.90877602  0.41361218  0.23089065    -0.20160
F623        F  0.99731816  0.42924458  0.24005697    -0.20480
F624        F  0.93093556  0.43676437  0.30062273    -0.23160
C625        C  0.03963194  0.37613004  0.77900982    -0.05990
C626        C  0.98312450  0.37279220  0.76309167    -0.00070
C627        C  0.94138378  0.36571843  0.80053927    -0.08640
C628        C  0.95790244  0.36283315  0.85148522    -0.06020
C629        C  0.01326144  0.36767337  0.86777708    -0.00080
C630        C  0.05540373  0.37378765  0.83082119    -0.08550
C631        C  0.11611152  0.37853926  0.84625659     0.61830
H632        H  0.07152081  0.38103221  0.75060000     0.12520
H633        H  0.92642632  0.35781527  0.88026588     0.12540
C634        C  0.87885596  0.36205593  0.78850327     0.62060
F635        F  0.15057808  0.38438358  0.80466178    -0.23100
F636        F  0.13747917  0.35617271  0.86885334    -0.20430
F637        F  0.11812942  0.39942006  0.88059185    -0.20110
F638        F  0.87229424  0.34044773  0.75649352    -0.20160
F639        F  0.85777497  0.38446669  0.76576982    -0.20480
F640        F  0.84608381  0.35776403  0.83194501    -0.23160
C641        C  0.05499952  0.48723132  0.59213182    -0.05990
C642        C  0.00333514  0.47377506  0.59374304    -0.00070
C643        C  0.95193278  0.48818451  0.59899284    -0.08640
C644        C  0.95370668  0.51582813  0.60075855    -0.06020
C645        C  0.00481288  0.52921095  0.59416626    -0.00080
C646        C  0.05654145  0.51494403  0.59133529    -0.08550
C647        C  0.11266938  0.52905282  0.58493027     0.61830
H648        H  0.09376406  0.47587066  0.58718650     0.12520
H649        H  0.91470209  0.52718821  0.60172194     0.12540
C650        C  0.89530418  0.47452275  0.59605202     0.62060
F651        F  0.15823131  0.51180958  0.58706908    -0.23100
F652        F  0.11814035  0.54767672  0.62350501    -0.20430
F653        F  0.11491575  0.54147335  0.53822756    -0.20110
F654        F  0.89252688  0.45459062  0.63152099    -0.20160
F655        F  0.88959226  0.46408008  0.54742268    -0.20480
F656        F  0.85041584  0.49167835  0.60559687    -0.23160
C657        C  0.73422593  0.35445538  0.58732520    -0.05990
C658        C  0.77471728  0.37117565  0.56586239    -0.00070
C659        C  0.75699983  0.39401564  0.54013087    -0.08640
C660        C  0.69867867  0.39926755  0.53692515    -0.06020
C661        C  0.65794972  0.38218896  0.55782856    -0.00080
C662        C  0.67609413  0.35879033  0.58209165    -0.08550
C663        C  0.63541392  0.33765112  0.60038717     0.61830
H664        H  0.74867958  0.33762779  0.60828899     0.12520
H665        H  0.68449418  0.41704857  0.51848226     0.12540
C666        C  0.79932861  0.41366655  0.51981783     0.62060
F667        F  0.66354960  0.31490021  0.61436463    -0.23100
F668        F  0.59924256  0.33092579  0.56136714    -0.20430
F669        F  0.60469175  0.34662676  0.64259666    -0.20110
F670        F  0.83115567  0.40247005  0.48031434    -0.20160
F671        F  0.83431994  0.42106202  0.55908110    -0.20480
F672        F  0.77331223  0.43611309  0.50159033    -0.23160
C673        C  0.19622993  0.39380877  0.52564845    -0.05990
C674        C  0.15778348  0.38094590  0.55844395    -0.00070
C675        C  0.17858850  0.36109862  0.59135704    -0.08640
C676        C  0.23696544  0.35591115  0.59120152    -0.06020
C677        C  0.27526831  0.36906723  0.55901272    -0.00080
C678        C  0.25435227  0.38791815  0.52460226    -0.08550
C679        C  0.29251042  0.40176602  0.48682464     0.61830
H680        H  0.18040644  0.40871975  0.50028734     0.12520
H681        H  0.25343055  0.34102691  0.61634300     0.12540
C682        C  0.14049258  0.34464173  0.62561333     0.62060
F683        F  0.26351460  0.41975216  0.45750119    -0.23100
F684        F  0.31660969  0.38323428  0.45423927    -0.20430
F685        F  0.33406099  0.41514943  0.51254830    -0.20110
F686        F  0.10031589  0.33217887  0.59633329    -0.20160
F687        F  0.11455286  0.36047707  0.66250122    -0.20480
F688        F  0.17024158  0.32526057  0.65079639    -0.23160
C689        C  0.45893319  0.36991500  0.27388819    -0.05990
C690        C  0.51400996  0.37526840  0.25595755    -0.00070
C691        C  0.55806011  0.37827461  0.29163275    -0.08640
C692        C  0.54571480  0.37446139  0.34356131    -0.06020
C693        C  0.49048733  0.36942496  0.36243741    -0.00080
C694        C  0.44601833  0.36738156  0.32656107    -0.08550
C695        C  0.38489837  0.36437231  0.34316094     0.61830
H696        H  0.42582503  0.36780650  0.24601221     0.12520
H697        H  0.58020217  0.37579232  0.37016991     0.12540
C698        C  0.61785884  0.38635032  0.27584521     0.62060
F699        F  0.34884064  0.36261192  0.30207053    -0.23100
F700        F  0.36923529  0.38625572  0.37180598    -0.20430
F701        F  0.37838031  0.34183146  0.37153073    -0.20110
F702        F  0.61569867  0.40723282  0.24242098    -0.20160
F703        F  0.64605776  0.36532054  0.25269299    -0.20480
F704        F  0.64925842  0.39438816  0.31738573    -0.23160
C705        C  0.53652974  0.37127955  0.77382337    -0.05990
C706        C  0.47985010  0.37244329  0.75772229    -0.00070
C707        C  0.43551238  0.37065717  0.79501505    -0.08640
C708        C  0.44985061  0.36737430  0.84625745    -0.06020
C709        C  0.50618149  0.36716504  0.86286003    -0.00080
C710        C  0.55057379  0.36878670  0.82592321    -0.08550
C711        C  0.61212846  0.36836544  0.84127379     0.61830
H712        H  0.56996649  0.37224384  0.74510317     0.12520
H713        H  0.41619540  0.36555889  0.87458239     0.12540
C714        C  0.37289987  0.37308358  0.78215874     0.62060
F715        F  0.64850160  0.37091873  0.79960798    -0.23100
F716        F  0.62420400  0.34468664  0.86438360    -0.20430
F717        F  0.62224683  0.38896192  0.87489194    -0.20110
F718        F  0.35545720  0.35072524  0.75629846    -0.20160
F719        F  0.36402872  0.39507991  0.75255501    -0.20480
F720        F  0.33884947  0.37586169  0.82551923    -0.23160
C721        C  0.54911191  0.48633453  0.59520898    -0.05990
C722        C  0.49802280  0.47248959  0.59333552    -0.00070
C723        C  0.44580646  0.48629251  0.59543285    -0.08640
C724        C  0.44638419  0.51390756  0.59486626    -0.06020
C725        C  0.49737255  0.52769504  0.59153984    -0.00080
C726        C  0.54962568  0.51401369  0.59408277    -0.08550
C727        C  0.60542194  0.52868583  0.59253851     0.61830
H728        H  0.58855315  0.47530001  0.59320105     0.12520
H729        H  0.40706543  0.52476465  0.59237706     0.12540
C730        C  0.38992618  0.47177772  0.59367243     0.62060
F731        F  0.65128301  0.51185606  0.59785511    -0.23100
F732        F  0.60623340  0.54704637  0.63198771    -0.20430
F733        F  0.61157662  0.54151114  0.54648679    -0.20110
F734        F  0.38759568  0.45344112  0.63227281    -0.20160
F735        F  0.38532530  0.45902997  0.54701649    -0.20480
F736        F  0.34402882  0.48870905  0.59987442    -0.23160
C737        C  0.65567305  0.26832816  0.04379756    -0.05990
C738        C  0.60205006  0.27624287  0.02653735    -0.00070
C739        C  0.56708000  0.25775871  0.00188959    -0.08640
C740        C  0.58727337  0.23179351  0.99548240    -0.06020
C741        C  0.64087427  0.22381808  0.01294639    -0.00080
C742        C  0.67587408  0.24238766  0.03755585    -0.08550
C743        C  0.73453613  0.23518860  0.05620692     0.61830
H744        H  0.68164649  0.28279486  0.06294933     0.12520
H745        H  0.56111287  0.21735815  0.97647460     0.12540
C746        C  0.50839875  0.26515451  0.98372913     0.62060
F747        F  0.76298405  0.25691988  0.07498710    -0.23100
F748        F  0.76673399  0.22447469  0.01639302    -0.20430
F749        F  0.73000573  0.21712213  0.09513746    -0.20110
F750        F  0.51279930  0.28371911  0.94569146    -0.20160
F751        F  0.47639178  0.27542352  0.02409665    -0.20480
F752        F  0.47996262  0.24362844  0.96407927    -0.23160
C753        C  0.98647852  0.14694010  0.96597292    -0.05990
C754        C  0.02668747  0.13011101  0.98734557    -0.00070
C755        C  0.00849568  0.10680623  0.01159646    -0.08640
C756        C  0.95026598  0.10089784  0.01214216    -0.06020
C757        C  0.90984041  0.11756455  0.98991437    -0.00080
C758        C  0.92826471  0.14157955  0.96776528    -0.08550
C759        C  0.88748916  0.16228660  0.94805529     0.61830
H760        H  0.00139519  0.16474590  0.94793412     0.12520
H761        H  0.93591803  0.08284063  0.02951939     0.12540
C762        C  0.05015345  0.08762794  0.03458039     0.62060
F763        F  0.91488059  0.18533548  0.93493642    -0.23100
F764        F  0.84778635  0.16859976  0.98575520    -0.20430
F765        F  0.86083950  0.15299094  0.90487417    -0.20110
F766        F  0.07958718  0.09992325  0.07317895    -0.20160
F767        F  0.08759837  0.07866468  0.99703033    -0.20480
F768        F  0.02332707  0.06597811  0.05533907    -0.23160
C769        C  0.44175680  0.11749489  0.03277676    -0.05990
C770        C  0.41041188  0.11577627  0.98755589    -0.00070
C771        C  0.43847090  0.11964878  0.94002764    -0.08640
C772        C  0.49655557  0.12525954  0.93978206    -0.06020
C773        C  0.52811443  0.12785133  0.98493113    -0.00080
C774        C  0.49996101  0.12369666  0.03268984    -0.08550
C775        C  0.52991629  0.12594731  0.08357529     0.61830
H776        H  0.41962794  0.11454018  0.06878632     0.12520
H777        H  0.51740161  0.12837316  0.90330681     0.12540
C778        C  0.40792262  0.11813642  0.88934640     0.62060
F779        F  0.49430749  0.12026073  0.12449069    -0.23100
F780        F  0.54923325  0.15137155  0.09070786    -0.20430
F781        F  0.57491964  0.10837345  0.08448160    -0.20110
F782        F  0.37117833  0.13932611  0.88573614    -0.20160
F783        F  0.37814454  0.09484923  0.88580163    -0.20480
F784        F  0.44502898  0.11893895  0.84787522    -0.23160
C785        C  0.07546563  0.25693834  0.05276889    -0.05990
C786        C  0.10428166  0.27794860  0.02972178    -0.00070
C787        C  0.15395412  0.27259903  0.99984132    -0.08640
C788        C  0.17230607  0.24629707  0.99391546    -0.06020
C789        C  0.14365019  0.22540406  0.01723165    -0.00080
C790        C  0.09386355  0.23064887  0.04644554    -0.08550
C791        C  0.05947657  0.20846527  0.06933754     0.61830
H792        H  0.03823353  0.26137998  0.07615615     0.12520
H793        H  0.20950927  0.24195072  0.97032292     0.12540
C794        C  0.19022524  0.29334085  0.97406479     0.62060
F795        F  0.01212721  0.21773135  0.09601030    -0.23100
F796        F  0.09249775  0.19436303  0.10261509    -0.20430
F797        F  0.04137955  0.19186643  0.03080636    -0.20110
F798        F  0.24469662  0.29193255  0.99262915    -0.20160
F799        F  0.17044886  0.31870870  0.98170357    -0.20480
F800        F  0.19231685  0.28833411  0.92200266    -0.23160
C801        C  0.81761182  0.75830823  0.02855694    -0.05990
C802        C  0.85819022  0.77789328  0.02080820    -0.00070
C803        C  0.91669680  0.77103640  0.02046711    -0.08640
C804        C  0.93253908  0.74468740  0.02881734    -0.06020
C805        C  0.89191585  0.72512000  0.03611411    -0.00080
C806        C  0.83347057  0.73183095  0.03532720    -0.08550
C807        C  0.78819214  0.71081758  0.03845173     0.61830
H808        H  0.77323167  0.76377387  0.02705032     0.12520
H809        H  0.97689463  0.73913501  0.02994292     0.12540
C810        C  0.96231468  0.79134468  0.01080915     0.62060
F811        F  0.73436761  0.72114268  0.03205836    -0.23100
F812        F  0.78920282  0.69866811  0.08536891    -0.20430
F813        F  0.79817812  0.69232174  0.00017952    -0.20110
F814        F  0.95282662  0.81331456  0.04161451    -0.20160
F815        F  0.96160959  0.79847948  0.96012467    -0.20480
F816        F  0.01586353  0.78164334  0.02099161    -0.23160
C817        C  0.68647743  0.98632787  0.97677512    -0.05990
C818        C  0.73147469  0.97174655  0.95509045    -0.00070
C819        C  0.77569475  0.98484698  0.92873360    -0.08640
C820        C  0.77691607  0.01264454  0.93061390    -0.06020
C821        C  0.73537485  0.02700200  0.95819654    -0.00080
C822        C  0.68746106  0.01385625  0.97875603    -0.08550
C823        C  0.63924530  0.02857291  0.00615224     0.61830
H824        H  0.65269092  0.97587960  0.99624284     0.12520
H825        H  0.81251192  0.02315610  0.91429229     0.12540
C826        C  0.82277803  0.96947256  0.90169417     0.62060
F827        F  0.59178941  0.01289595  0.01158153    -0.23100
F828        F  0.62386088  0.05050812  0.97864492    -0.20430
F829        F  0.65581651  0.03638086  0.05440886    -0.20110
F830        F  0.79987056  0.95320800  0.86475927    -0.20160
F831        F  0.85151586  0.95430226  0.93642664    -0.20480
F832        F  0.86134445  0.98593604  0.87800138    -0.23160
C833        C  0.47800103  0.88678838  0.01425268    -0.05990
C834        C  0.46373949  0.87145088  0.97178615    -0.00070
C835        C  0.50638139  0.86581812  0.93388479    -0.08640
C836        C  0.56263374  0.87248287  0.94417167    -0.06020
C837        C  0.57789642  0.88641550  0.98840988    -0.00080
C838        C  0.53357323  0.89531814  0.02248831    -0.08550
C839        C  0.54338537  0.91226125  0.06934910     0.61830
H840        H  0.44480398  0.89198662  0.04162968     0.12520
H841        H  0.59548033  0.86682788  0.91688461     0.12540
C842        C  0.49380868  0.85373661  0.88187013     0.62060
F843        F  0.49340620  0.92031699  0.09345731    -0.23100
F844        F  0.57314942  0.93470642  0.05687602    -0.20430
F845        F  0.57263570  0.89741329  0.10332876    -0.20110
F846        F  0.45625550  0.86977171  0.85671968    -0.20160
F847        F  0.47170244  0.82887480  0.88692476    -0.20480
F848        F  0.54160415  0.85122801  0.85127399    -0.23160
C849        C  0.04028706  0.89821739  0.01525267    -0.05990
C850        C  0.07965718  0.88271983  0.98675077    -0.00070
C851        C  0.05933607  0.86153310  0.95621703    -0.08640
C852        C  0.00069633  0.85791134  0.95320196    -0.06020
C853        C  0.96179042  0.87297200  0.98231870    -0.00080
C854        C  0.98161284  0.89347824  0.01424872    -0.08550
C855        C  0.94131137  0.91112401  0.04502041     0.61830
H856        H  0.05581599  0.91430340  0.03850750     0.12520
H857        H  0.98449050  0.84266876  0.92832882     0.12540
C858        C  0.09826295  0.84178352  0.92874558     0.62060
F859        F  0.96959660  0.93081934  0.07105444    -0.23100
F860        F  0.91178687  0.89649918  0.08066140    -0.20430
F861        F  0.90374485  0.92302379  0.01249658    -0.20110
F862        F  0.13593532  0.83135515  0.96309420    -0.20160
F863        F  0.12734020  0.85384152  0.88929150    -0.20480
F864        F  0.06865474  0.82093349  0.90781246    -0.23160
C865        C  0.31885860  0.75946452  0.03859834    -0.05990
C866        C  0.35346446  0.77542918  0.00843651    -0.00070
C867        C  0.40672384  0.76543595  0.99017209    -0.08640
C868        C  0.42293946  0.73963824  0.00222093    -0.06020
C869        C  0.38840559  0.72360268  0.03216369    -0.00080
C870        C  0.33492543  0.73351874  0.05053994    -0.08550
C871        C  0.29374741  0.71682172  0.08137178     0.61830
H872        H  0.27846194  0.76737937  0.05195426     0.12520
H873        H  0.46338868  0.73182884  0.98875207     0.12540
C874        C  0.44702035  0.78184458  0.95831564     0.62060
F875        F  0.24063350  0.72847782  0.08554286    -0.23100
F876        F  0.31359194  0.71345713  0.13027164    -0.20430
F877        F  0.28725293  0.69253199  0.05785865    -0.20110
F878        F  0.45352383  0.80634263  0.98101108    -0.20160
F879        F  0.42565647  0.78442695  0.90980023    -0.20480
F880        F  0.50026001  0.77035353  0.95358576    -0.23160
C881        C  0.29215890  0.98412888  0.95017741    -0.05990
C882        C  0.23875014  0.97229064  0.95400734    -0.00070
C883        C  0.18920904  0.98806215  0.95400498    -0.08640
C884        C  0.19485097  0.01562806  0.95306676    -0.06020
C885        C  0.24834849  0.02751297  0.95385559    -0.00080
C886        C  0.29784771  0.01170036  0.95102100    -0.08550
C887        C  0.35618350  0.02402872  0.95215114     0.61830
H888        H  0.32950771  0.97162560  0.95096151     0.12520
H889        H  0.15754322  0.02813554  0.95616772     0.12540
C890        C  0.13098845  0.97569687  0.95797726     0.62060
F891        F  0.39888962  0.00532714  0.94677586    -0.23100
F892        F  0.36338333  0.03724275  0.99808350    -0.20430
F893        F  0.36160235  0.04164155  0.91256841    -0.20110
F894        F  0.12485367  0.96315493  0.00432726    -0.20160
F895        F  0.12477816  0.95746261  0.91881996    -0.20480
F896        F  0.08812966  0.99430403  0.95449869    -0.23160
C897        C  0.82208190  0.24115045  0.53565385    -0.05990
C898        C  0.86458769  0.22247008  0.52500702    -0.00070
C899        C  0.92214346  0.23064626  0.52291558    -0.08640
C900        C  0.93453837  0.25756906  0.52851986    -0.06020
C901        C  0.89201382  0.27616933  0.53946400    -0.00080
C902        C  0.83483641  0.26785703  0.54363750    -0.08550
C903        C  0.78739870  0.28708628  0.55675896     0.61830
H904        H  0.77844214  0.23466475  0.53687538     0.12520
H905        H  0.97831479  0.26393746  0.52711635     0.12540
C906        C  0.97237902  0.21201747  0.51759938     0.62060
F907        F  0.73449282  0.27591390  0.55101064    -0.23100
F908        F  0.79070964  0.30863610  0.52506936    -0.20430
F909        F  0.79220066  0.29506837  0.60710988    -0.20110
F910        F  0.00048246  0.21663094  0.47185781    -0.20160
F911        F  0.95723041  0.18585286  0.51965663    -0.20480
F912        F  0.00932621  0.21671886  0.55712796    -0.23160
C913        C  0.80049889  0.12892978  0.25403968    -0.05990
C914        C  0.75319054  0.12940687  0.28694244    -0.00070
C915        C  0.69849936  0.13254936  0.26592769    -0.08640
C916        C  0.69348450  0.13446157  0.21207142    -0.06020
C917        C  0.74144485  0.13407295  0.17922295    -0.00080
C918        C  0.79635194  0.13211990  0.20124100    -0.08550
C919        C  0.85166513  0.13382942  0.17034634     0.61830
H920        H  0.84196257  0.12646752  0.27056160     0.12520
H921        H  0.65201025  0.13594323  0.19523300     0.12540
C922        C  0.64616752  0.13461908  0.30016213     0.62060
F923        F  0.89766892  0.13860167  0.20124247    -0.23100
F924        F  0.84888357  0.15430743  0.13606087    -0.20430
F925        F  0.86209471  0.11032079  0.14449251    -0.20110
F926        F  0.65231349  0.15512337  0.33487170    -0.20160
F927        F  0.63879169  0.11135480  0.32627988    -0.20480
F928        F  0.59774198  0.13936038  0.27250347    -0.23160
C929        C  0.71905227  0.14661684  0.75849386    -0.05990
C930        C  0.74978991  0.12853330  0.78790025    -0.00070
C931        C  0.79627171  0.11470369  0.76425079    -0.08640
C932        C  0.80689631  0.11814664  0.71142128    -0.06020
C933        C  0.77318870  0.13477534  0.68204208    -0.00080
C934        C  0.72961125  0.14983416  0.70604757    -0.08550
C935        C  0.69354800  0.16891099  0.67596861     0.61830
H936        H  0.68509368  0.15792500  0.77658738     0.12520
H937        H  0.83963459  0.10666964  0.69183975     0.12540
C938        C  0.83350999  0.09574765  0.79337930     0.62060
F939        F  0.65854262  0.18412520  0.70759035    -0.23100
F940        F  0.65967806  0.15520587  0.64240459    -0.20430
F941        F  0.72829903  0.18568996  0.64869709    -0.20110
F942        F  0.80072769  0.07601145  0.81433476    -0.20160
F943        F  0.86127231  0.10918711  0.83170189    -0.20480
F944        F  0.87438558  0.08390336  0.76209224    -0.23160
C945        C  0.57114151  0.13659875  0.45959508    -0.05990
C946        C  0.58720825  0.11856094  0.49708886    -0.00070
C947        C  0.54405054  0.10820599  0.53012736    -0.08640
C948        C  0.48702542  0.11565154  0.52246978    -0.06020
C949        C  0.47137530  0.13301131  0.48383243    -0.00080
C950        C  0.51458315  0.14430420  0.45260871    -0.08550
C951        C  0.50219787  0.16492094  0.41240240     0.61830
H952        H  0.60362666  0.14481167  0.43503434     0.12520
H953        H  0.45367578  0.10760128  0.54636325     0.12540
C954        C  0.55675674  0.08931825  0.57324423     0.62060
F955        F  0.55112403  0.17672585  0.39422398    -0.23100
F956        F  0.46788754  0.18463744  0.43314866    -0.20430
F957        F  0.47589329  0.15326817  0.37116912    -0.20110
F958        F  0.59165022  0.10137453  0.60832734    -0.20160
F959        F  0.58256523  0.06672769  0.55371987    -0.20480
F960        F  0.50810782  0.08173201  0.59929841    -0.23160
C961        C  0.98527009  0.10956924  0.51202329    -0.05990
C962        C  0.96996409  0.12712612  0.47361388    -0.00070
C963        C  0.01305758  0.13768694  0.44140653    -0.08640
C964        C  0.06967396  0.13023743  0.44925400    -0.06020
C965        C  0.08558801  0.11257346  0.48756272    -0.00080
C966        C  0.04204623  0.10173850  0.51948735    -0.08550
C967        C  0.05407343  0.08192666  0.56118782     0.61830
H968        H  0.95179283  0.10186939  0.53623587     0.12520
H969        H  0.10229128  0.13826937  0.42459791     0.12540
C970        C  0.00050912  0.15669019  0.39836847     0.62060
F971        F  0.00490715  0.07329006  0.58503945    -0.23100
F972        F  0.08729798  0.09335083  0.59832219    -0.20430
F973        F  0.08136815  0.06002944  0.54028574    -0.20110
F974        F  0.04924841  0.16845297  0.37960647    -0.20160
F975        F  0.96465048  0.17666467  0.41508586    -0.20480
F976        F  0.97559032  0.14315213  0.35860857    -0.23160
C977        C  0.39374465  0.25655535  0.56773743    -0.05990
C978        C  0.39463347  0.27539945  0.52857294    -0.00070
C979        C  0.37191446  0.26866373  0.48050719    -0.08640
C980        C  0.34860277  0.24345376  0.47385408    -0.06020
C981        C  0.34758838  0.22462065  0.51307883    -0.00080
C982        C  0.37050400  0.23134921  0.56109266    -0.08550
C983        C  0.37185336  0.21204536  0.60487644     0.61830
H984        H  0.41128603  0.26188711  0.60436259     0.12520
H985        H  0.33115286  0.23811801  0.43719643     0.12540
C986        C  0.37091591  0.28797209  0.43671872     0.62060
F987        F  0.39871259  0.22233364  0.64723131    -0.23100
F988        F  0.40082942  0.18945427  0.58955838    -0.20430
F989        F  0.31707714  0.20579616  0.61963284    -0.20110
F990        F  0.42579340  0.29419049  0.42223069    -0.20160
F991        F  0.34197694  0.31059194  0.45191282    -0.20480
F992        F  0.34427193  0.27769631  0.39424280    -0.23160
C993        C  0.29397276  0.13298594  0.19816463    -0.05990
C994        C  0.23775226  0.13348597  0.18123739    -0.00070
C995        C  0.19312582  0.13145005  0.21791506    -0.08640
C996        C  0.20690810  0.12839443  0.27001343    -0.06020
C997        C  0.26350206  0.12690831  0.28628641    -0.00080
C998        C  0.30800623  0.12892078  0.24922055    -0.08550
C999        C  0.37053950  0.12597504  0.26206523     0.61830
H1000       H  0.32788574  0.13518887  0.17021412     0.12520
H1001       H  0.17335860  0.12716901  0.29858077     0.12540
C1002       C  0.13162644  0.13181345  0.20231674     0.62060
F1003       F  0.40453600  0.12319631  0.21867218    -0.23100
F1004       F  0.37871781  0.10374729  0.29119221    -0.20430
F1005       F  0.38865644  0.14806506  0.28838000    -0.20110
F1006       F  0.12187806  0.11121033  0.16870115    -0.20160
F1007       F  0.11929958  0.15541628  0.17907388    -0.20480
F1008       F  0.09509134  0.12919431  0.24385486    -0.23160
C1009       C  0.20207353  0.12393505  0.69959909    -0.05990
C1010       C  0.25669589  0.12965760  0.68015802    -0.00070
C1011       C  0.30167727  0.13214143  0.71532660    -0.08640
C1012       C  0.28952370  0.12972834  0.76831459    -0.06020
C1013       C  0.23450554  0.12450517  0.78705209    -0.00080
C1014       C  0.19040449  0.12058216  0.75175887    -0.08550
C1015       C  0.13106131  0.11221258  0.76829652     0.61830
H1016       H  0.16738957  0.12199073  0.67332395     0.12520
H1017       H  0.32282548  0.13253036  0.79571237     0.12540
C1018       C  0.36202413  0.13711852  0.69754704     0.62060
F1019       F  0.10033749  0.10264446  0.72753090    -0.23100
F1020       F  0.10164662  0.13349005  0.78920774    -0.20430
F1021       F  0.13422530  0.09233224  0.80386400    -0.20110
F1022       F  0.36486286  0.16128299  0.67412127    -0.20160
F1023       F  0.37942186  0.11754436  0.66346055    -0.20480
F1024       F  0.39937851  0.13737819  0.73778514    -0.23160
C1025       C  0.63379646  0.73881861  0.57047713    -0.05990
C1026       C  0.60061689  0.72547621  0.53387456    -0.00070
C1027       C  0.59009414  0.73795287  0.48696590    -0.08640
C1028       C  0.61357645  0.76295360  0.47862598    -0.06020
C1029       C  0.64663848  0.77643503  0.51529367    -0.00080
C1030       C  0.65669126  0.76398236  0.56248490    -0.08550
C1031       C  0.69132595  0.77667972  0.60455600     0.61830
H1032       H  0.64252499  0.72917134  0.60611480     0.12520
H1033       H  0.60574464  0.77214271  0.44239984     0.12540
C1034       C  0.55384003  0.72546007  0.44583657     0.62060
F1035       F  0.69719624  0.76041138  0.64624067    -0.23100
F1036       F  0.66486268  0.79959570  0.62170541    -0.20430
F1037       F  0.74516234  0.78225004  0.58619885    -0.20110
F1038       F  0.50185251  0.71841689  0.46647381    -0.20160
F1039       F  0.58107107  0.70342726  0.42552625    -0.20480
F1040       F  0.54375409  0.74249973  0.40604962    -0.23160
C1041       C  0.80261629  0.86608994  0.21165668    -0.05990
C1042       C  0.75461368  0.87144240  0.18229023    -0.00070
C1043       C  0.70290694  0.87857510  0.20842518    -0.08640
C1044       C  0.70198933  0.88091939  0.26135491    -0.06020
C1045       C  0.74859146  0.87475215  0.29056594    -0.00080
C1046       C  0.80024215  0.86713273  0.26573930    -0.08550
C1047       C  0.85099745  0.85834032  0.29570931     0.61830
H1048       H  0.84169989  0.86057010  0.19199089     0.12520
H1049       H  0.66349095  0.88730670  0.28108209     0.12540
C1050       C  0.64793643  0.88432404  0.18187119     0.62060
F1051       F  0.89694415  0.85201337  0.26424317    -0.23100
F1052       F  0.83650271  0.83612989  0.32276201    -0.20430
F1053       F  0.86744640  0.87818860  0.32879966    -0.20110
F1054       F  0.63493120  0.86349832  0.14955819    -0.20160
F1055       F  0.65430321  0.90763897  0.15567992    -0.20480
F1056       F  0.60225881  0.88753839  0.21538413    -0.23160
C1057       C  0.69901421  0.86548948  0.71167218    -0.05990
C1058       C  0.74644520  0.87064624  0.68035175    -0.00070
C1059       C  0.79896244  0.87733804  0.70397514    -0.08640
C1060       C  0.80076020  0.87891491  0.75735892    -0.06020
C1061       C  0.75371025  0.87356643  0.78838134    -0.00080
C1062       C  0.70184835  0.86673345  0.76549175    -0.08550
C1063       C  0.65015084  0.86031781  0.79762373     0.61830
H1064       H  0.65942872  0.86063525  0.69361956     0.12520
H1065       H  0.83991923  0.88406155  0.77591866     0.12540
C1066       C  0.85409500  0.88251166  0.67443788     0.62060
F1067       F  0.60546652  0.85228904  0.76769702    -0.23100
F1068       F  0.63325381  0.88250362  0.82515729    -0.20430
F1069       F  0.66266744  0.84021191  0.83091361    -0.20110
F1070       F  0.84975524  0.90583480  0.64796324    -0.20160
F1071       F  0.86595537  0.86181505  0.64098257    -0.20480
F1072       F  0.90011457  0.88490041  0.70629536    -0.23160
C1073       C  0.79344634  0.98710757  0.44058848    -0.05990
C1074       C  0.74475525  0.97357005  0.45639549    -0.00070
C1075       C  0.69317184  0.98755136  0.46456015    -0.08640
C1076       C  0.69327177  0.01514859  0.46108405    -0.06020
C1077       C  0.74328104  0.02893367  0.45059211    -0.00080
C1078       C  0.79368866  0.01484202  0.43812537    -0.08550
C1079       C  0.84821710  0.02928913  0.42603975     0.61830
H1080       H  0.83238935  0.97601093  0.43455054     0.12520
H1081       H  0.65535344  0.02633898  0.47112257     0.12540
C1082       C  0.63888661  0.97342128  0.47942500     0.62060
F1083       F  0.89206174  0.01206992  0.41326041    -0.23100
F1084       F  0.86426744  0.04410537  0.46801872    -0.20430
F1085       F  0.83988544  0.04582716  0.38522096    -0.20110
F1086       F  0.64351830  0.96300277  0.52773519    -0.20160
F1087       F  0.62893435  0.95326016  0.44477850    -0.20480
F1088       F  0.59246597  0.99024717  0.47979946    -0.23160
C1089       C  0.99334569  0.85780239  0.46141588    -0.05990
C1090       C  0.03269226  0.87466166  0.48380091    -0.00070
C1091       C  0.01298230  0.89625190  0.51414150    -0.08640
C1092       C  0.95433286  0.90160744  0.51645516    -0.06020
C1093       C  0.91483357  0.88477066  0.49338401    -0.00080
C1094       C  0.93487816  0.86121698  0.46910418    -0.08550
C1095       C  0.89594500  0.83868532  0.45486239     0.61830
H1096       H  0.00902530  0.84099508  0.43954255     0.12520
H1097       H  0.93891400  0.91894475  0.53690018     0.12540
C1098       C  0.05321861  0.91373245  0.54325409     0.62060
F1099       F  0.92578688  0.81604610  0.44137546    -0.23100
F1100       F  0.86367958  0.84546507  0.41379467    -0.20430
F1101       F  0.86101464  0.83278081  0.49607351    -0.20110
F1102       F  0.09177850  0.92460069  0.50971612    -0.20160
F1103       F  0.08147953  0.89901805  0.57886993    -0.20480
F1104       F  0.02523793  0.93408664  0.56900440    -0.23160
C1105       C  0.51614524  0.89572911  0.48840576    -0.05990
C1106       C  0.53251894  0.86919419  0.48880899    -0.00070
C1107       C  0.49065105  0.84937701  0.49168794    -0.08640
C1108       C  0.43313595  0.85684125  0.49353651    -0.06020
C1109       C  0.41651789  0.88337306  0.49291560    -0.00080
C1110       C  0.45854211  0.90325240  0.49036807    -0.08550
C1111       C  0.44261595  0.93215864  0.48697852     0.61830
H1112       H  0.54894565  0.91048211  0.48544602     0.12520
H1113       H  0.40050855  0.84197137  0.49566092     0.12540
C1114       C  0.50692337  0.82045567  0.49245712     0.62060
F1115       F  0.48958944  0.94788334  0.47914463    -0.23100
F1116       F  0.41602516  0.94048236  0.53182460    -0.20430
F1117       F  0.40659895  0.93566941  0.44645391    -0.20110
F1118       F  0.54182831  0.81583147  0.53333563    -0.20160
F1119       F  0.53508490  0.81368284  0.44745088    -0.20480
F1120       F  0.46005396  0.80436923  0.49729342    -0.23160
C1121       C  0.17403749  0.76227338  0.54338521    -0.05990
C1122       C  0.13522855  0.77905118  0.52026143    -0.00070
C1123       C  0.08014075  0.76948923  0.50942048    -0.08640
C1124       C  0.06735117  0.74294479  0.51917534    -0.06020
C1125       C  0.10686875  0.72584919  0.54070087    -0.00080
C1126       C  0.16163095  0.73572732  0.55304002    -0.08550
C1127       C  0.20974450  0.71964582  0.57514615     0.61830
H1128       H  0.21584772  0.76971001  0.55195634     0.12520
H1129       H  0.02549502  0.73545819  0.51122685     0.12540
C1130       C  0.03376929  0.78744097  0.49030551     0.62060
F1131       F  0.21827357  0.72772288  0.62504415    -0.23100
F1132       F  0.25899335  0.72391650  0.54709486    -0.20430
F1133       F  0.20038718  0.69295179  0.57445556    -0.20110
F1134       F  0.04395708  0.79335034  0.43961547    -0.20160
F1135       F  0.03196852  0.81033532  0.51947851    -0.20480
F1136       F  0.98098604  0.77580197  0.49397094    -0.23160
C1137       C  0.30108679  0.86090806  0.20738693    -0.05990
C1138       C  0.25854184  0.87247120  0.17762777    -0.00070
C1139       C  0.21259083  0.88608989  0.20364040    -0.08640
C1140       C  0.20980577  0.88585715  0.25720619    -0.06020
C1141       C  0.25064857  0.87339956  0.28627314    -0.00080
C1142       C  0.29795284  0.86123570  0.26152157    -0.08550
C1143       C  0.34361276  0.84793856  0.29230596     0.61830
H1144       H  0.33629031  0.85108934  0.18796924     0.12520
H1145       H  0.17432367  0.89503186  0.27747344     0.12540
C1146       C  0.16543476  0.90091570  0.17657447     0.62060
F1147       F  0.38511099  0.83645697  0.26121625    -0.23100
F1148       F  0.31984516  0.82848233  0.32217465    -0.20430
F1149       F  0.36919924  0.86634553  0.32356261    -0.20110
F1150       F  0.13268976  0.88346065  0.14902466    -0.20160
F1151       F  0.18856661  0.91963360  0.14461967    -0.20480
F1152       F  0.12928830  0.91414634  0.21047773    -0.23160
C1153       C  0.20245425  0.87551843  0.76744203    -0.05990
C1154       C  0.25763124  0.87034559  0.78468710    -0.00070
C1155       C  0.30038609  0.86236871  0.74826122    -0.08640
C1156       C  0.28582346  0.86005080  0.69684727    -0.06020
C1157       C  0.23221211  0.86701310  0.67941603    -0.00080
C1158       C  0.18921411  0.87449438  0.71508335    -0.08550
C1159       C  0.13096209  0.88285340  0.69781226     0.61830
H1160       H  0.16999438  0.88123194  0.79517678     0.12520
H1161       H  0.31771886  0.85417120  0.66865245     0.12540
C1162       C  0.36228415  0.85784002  0.76162294     0.62060
F1163       F  0.09535673  0.88939832  0.73865494    -0.23100
F1164       F  0.10630599  0.86251689  0.67071440    -0.20430
F1165       F  0.13592377  0.90468678  0.66709543    -0.20110
F1166       F  0.36734844  0.83644718  0.79349633    -0.20160
F1167       F  0.38310063  0.88028705  0.78487848    -0.20480
F1168       F  0.39618812  0.85270531  0.71891615    -0.23160
C1169       C  0.31382763  0.98537092  0.46350800    -0.05990
C1170       C  0.26642885  0.97118450  0.44773902    -0.00070
C1171       C  0.21936021  0.98476604  0.42763424    -0.08640
C1172       C  0.21864434  0.01253394  0.42966183    -0.06020
C1173       C  0.26358867  0.02649134  0.45114904    -0.00080
C1174       C  0.31351904  0.01295114  0.46507786    -0.08550
C1175       C  0.36526530  0.02754533  0.48409342     0.61830
H1176       H  0.34923923  0.97472065  0.47912495     0.12520
H1177       H  0.18117456  0.02336269  0.41865290     0.12540
C1178       C  0.16865936  0.96990594  0.40790965     0.62060
F1179       F  0.41188524  0.01098202  0.48737447    -0.23100
F1180       F  0.35441385  0.03827746  0.53207128    -0.20430
F1181       F  0.37899629  0.04750153  0.45067984    -0.20110
F1182       F  0.14421459  0.95577932  0.44706447    -0.20160
F1183       F  0.18588525  0.95272357  0.36922014    -0.20480
F1184       F  0.12795407  0.98669480  0.38875969    -0.23160
loop_ 
_geom_bond_atom_site_label_1 
_geom_bond_atom_site_label_2 
_geom_bond_distance 
_geom_bond_site_symmetry_2 
_ccdc_geom_bond_type 
O1           Ni7   1.906       .  S
O1           C22   1.269       .  A
O2          Ni25   1.911       .  S
O2           C11   1.268       .  A
O3           Ni7   1.887       .  S
O3          Ni25   1.892       .  S
O3          Ni19   1.913       .  S
O3           H26   0.963       .  S
C4           O21   1.280       .  A
C4           O13   1.274       .  A
C4         C1122   1.489       .  S
O5          Ni24   1.934       .  S
O5           C11   1.275       .  A
O6          Ni24   1.911       .  S
O6            C8   1.271       .  A
Ni7          O10   1.903       .  S
Ni7          O12   1.909       .  S
C8           O18   1.272       .  A
C8         C1090   1.481       .  S
O9          Ni25   1.944       .  S
O9           C15   1.282       .  A
O10          C15   1.275       .  A
C11        C1141   1.482       .  S
O12          C14   1.266       .  A
O13         Ni24   1.931       .  S
C14          O20   1.273       .  A
C14        C1109   1.482       .  S
C15        C1170   1.473       .  S
H16          O17   0.966       .  S
O17         Ni25   1.918       .  S
O17         Ni19   1.914       .  S
O17         Ni24   1.904       .  S
O18         Ni19   1.938       .  S
Ni19         O23   1.928       .  S
Ni19         O21   1.924       .  S
O20         Ni25   1.933       .  S
C22          O23   1.272       .  A
C22        C1157   1.478       .  S
O27         Ni33   1.891       .  S
O27          C48   1.256       .  A
O28         Ni51   1.911       .  S
O28          C37   1.264       .  A
O29         Ni33   1.882       .  S
O29         Ni51   1.881       .  S
O29         Ni45   1.924       .  S
O29          H52   0.966       .  S
C30          O47   1.283       .  A
C30          O39   1.274       .  A
C30        C1029   1.503       .  S
O31         Ni50   1.914       .  S
O31          C37   1.273       .  A
O32         Ni50   1.907       .  S
O32          C34   1.270       .  A
Ni33         O36   1.903       .  S
Ni33         O38   1.910       .  S
C34          O44   1.277       .  A
C34        C1106   1.477       .  S
O35         Ni51   1.951       .  S
O35          C41   1.286       .  A
O36          C41   1.277       .  A
C37        C1045   1.480       .  S
O38          C40   1.264       .  A
O39         Ni50   1.907       .  S
C40          O46   1.262       .  A
C40        C1093   1.490       .  S
C41        C1074   1.475       .  S
H42          O43   0.965       .  S
O43         Ni51   1.917       .  S
O43         Ni45   1.906       .  S
O43         Ni50   1.883       .  S
O44         Ni45   1.946       .  S
Ni45         O49   1.947       .  S
Ni45         O47   1.934       .  S
O46         Ni51   1.911       .  S
C48          O49   1.281       .  A
C48        C1058   1.494       .  S
O53         Ni59   1.900       .  S
O53          C74   1.266       .  A
O54         Ni77   1.927       .  S
O54          C63   1.269       .  A
O55         Ni59   1.884       .  S
O55         Ni77   1.895       .  S
O55         Ni71   1.920       .  S
O55          H78   0.966       .  S
C56          O73   1.284       .  A
C56          O65   1.275       .  A
C56         C981   1.489       .  S
O57         Ni76   1.909       .  S
O57          C63   1.263       .  A
O58         Ni76   1.894       .  S
O58          C60   1.264       .  A
Ni59         O62   1.903       .  S
Ni59         O64   1.909       .  S
C60          O70   1.278       .  A
C60         C949   1.493       .  S
O61         Ni77   1.942       .  S
O61          C67   1.283       .  A
O62          C67   1.277       .  A
C63         C997   1.493       .  S
O64          C66   1.262       .  A
O65         Ni76   1.908       .  S
C66          O72   1.272       .  A
C66         C965   1.505       .  S
C67        C1173   1.470       .  S
H68          O69   0.966       .  S
O69         Ni77   1.916       .  S
O69         Ni71   1.915       .  S
O69         Ni76   1.890       .  S
O70         Ni71   1.950       .  S
Ni71         O75   1.954       .  S
Ni71         O73   1.932       .  S
O72         Ni77   1.927       .  S
C74          O75   1.280       .  A
C74        C1010   1.505       .  S
O79         Ni85   1.909       .  S
O79         C100   1.265       .  A
O80        Ni103   1.926       .  S
O80          C89   1.272       .  A
O81         Ni85   1.897       .  S
O81        Ni103   1.899       .  S
O81         Ni97   1.908       .  S
O81         H104   0.966       .  S
C82          O99   1.275       .  A
C82          O91   1.270       .  A
C82         C898   1.477       .  S
O83        Ni102   1.915       .  S
O83          C89   1.272       .  A
O84        Ni102   1.902       .  S
O84          C86   1.268       .  A
Ni85         O88   1.903       .  S
Ni85         O90   1.906       .  S
C86          O96   1.282       .  A
C86         C962   1.490       .  S
O87        Ni103   1.946       .  S
O87          C93   1.283       .  A
O88          C93   1.274       .  A
C89         C914   1.491       .  S
O90          C92   1.263       .  A
O91        Ni102   1.929       .  S
C92          O98   1.275       .  A
C92         C946   1.505       .  S
C93        C1077   1.473       .  S
H94          O95   0.966       .  S
O95        Ni103   1.930       .  S
O95         Ni97   1.916       .  S
O95        Ni102   1.907       .  S
O96         Ni97   1.958       .  S
Ni97        O101   1.932       .  S
Ni97         O99   1.920       .  S
O98        Ni103   1.931       .  S
C100        O101   1.274       .  A
C100        C933   1.475       .  S
O105       Ni111   1.902       .  S
O105        C126   1.257       .  A
O106       Ni129   1.961       .  S
O106        C115   1.282       .  A
O107       Ni111   1.887       .  S
O107       Ni129   1.916   1_556  S
O107       Ni123   1.926       .  S
O107        H130   0.964       .  S
C108        O125   1.285       .  A
C108        O117   1.279   1_556  A
C108        C882   1.471       .  S
O109       Ni128   1.897       .  S
O109        C115   1.257       .  A
O110       Ni128   1.900       .  S
O110        C112   1.264   1_554  A
Ni111       O114   1.908       .  S
Ni111       O116   1.877       .  S
C112        O122   1.265       .  A
C112        C850   1.491       .  S
O113       Ni129   1.942       .  S
O113        C119   1.286   1_554  A
O114        C119   1.273       .  A
C115       C1138   1.507       .  S
O116        C118   1.258       .  A
O117       Ni128   1.909       .  S
C118        O124   1.278   1_556  A
C118        C834   1.489       .  S
C119        C866   1.484   1_556  S
H120        O121   0.966       .  S
O121       Ni129   1.925       .  S
O121       Ni123   1.888   1_554  S
O121       Ni128   1.877       .  S
O122       Ni123   1.918       .  S
Ni123       O127   1.926       .  S
Ni123       O125   1.943       .  S
O124       Ni129   1.937       .  S
C126        O127   1.268       .  A
C126       C1154   1.493       .  S
O131       Ni137   1.919       .  S
O131        C152   1.271       .  A
O132       Ni155   1.948       .  S
O132        C141   1.276       .  A
O133       Ni137   1.902       .  S
O133       Ni155   1.921   1_556  S
O133       Ni149   1.925       .  S
O133        H156   0.966       .  S
C134        O151   1.283       .  A
C134        O143   1.278   1_556  A
C134        C818   1.473       .  S
O135       Ni154   1.891       .  S
O135        C141   1.258       .  A
O136       Ni154   1.905       .  S
O136        C138   1.261   1_554  A
Ni137       O140   1.922       .  S
Ni137       O142   1.899       .  S
C138        O148   1.274       .  A
C138        C837   1.502       .  S
O139       Ni155   1.925       .  S
O139        C145   1.278       .  A
O140        C145   1.271   1_556  A
C141       C1042   1.499       .  S
O142        C144   1.269       .  A
O143       Ni154   1.902       .  S
C144        O150   1.276   1_556  A
C144        C853   1.479       .  S
C145        C802   1.479       .  S
H146        O147   0.963       .  S
O147       Ni155   1.916       .  S
O147       Ni149   1.883   1_554  S
O147       Ni154   1.878       .  S
O148       Ni149   1.927       .  S
Ni149       O153   1.912       .  S
Ni149       O151   1.943       .  S
O150       Ni155   1.946       .  S
C152        O153   1.268       .  A
C152       C1061   1.481       .  S
O157       Ni163   1.921       .  S
O157        C178   1.268       .  A
O158       Ni181   1.949       .  S
O158        C167   1.278       .  A
O159       Ni163   1.897       .  S
O159       Ni181   1.919   1_556  S
O159       Ni175   1.919       .  S
O159        H182   0.966       .  S
C160        O177   1.285       .  A
C160        O169   1.276   1_556  A
C160        C885   1.471       .  S
O161       Ni180   1.899       .  S
O161        C167   1.267       .  A
O162       Ni180   1.906       .  S
O162        C164   1.266   1_554  A
Ni163       O166   1.916       .  S
Ni163       O168   1.900       .  S
C164        O174   1.268       .  A
C164        C770   1.489       .  S
O165       Ni181   1.933       .  S
O165        C171   1.282       .  A
O166        C171   1.274   1_556  A
C167        C994   1.496       .  S
O168        C170   1.269       .  A
O169       Ni180   1.905       .  S
C170        O176   1.275   1_556  A
C170        C754   1.481       .  S
C171        C789   1.477       .  S
H172        O173   0.963       .  S
O173       Ni181   1.917       .  S
O173       Ni175   1.889   1_554  S
O173       Ni180   1.881       .  S
O174       Ni175   1.923       .  S
Ni175       O179   1.923       .  S
Ni175       O177   1.947       .  S
O176       Ni181   1.940       .  S
C178        O179   1.269       .  A
C178       C1013   1.490       .  S
O183       Ni189   1.924       .  S
O183        C204   1.271       .  A
O184       Ni207   1.957       .  S
O184        C193   1.281       .  A
O185       Ni189   1.890       .  S
O185       Ni207   1.917   1_556  S
O185       Ni201   1.916       .  S
O185        H208   0.964       .  S
C186        O203   1.285       .  A
C186        O195   1.275   1_556  A
C186        C821   1.472       .  S
O187       Ni206   1.891       .  S
O187        C193   1.259       .  A
O188       Ni206   1.907       .  S
O188        C190   1.264   1_554  A
Ni189       O192   1.916       .  S
Ni189       O194   1.894       .  S
C190        O200   1.264       .  A
C190        C757   1.491       .  S
O191       Ni207   1.920       .  S
O191        C197   1.280   1_554  A
O192        C197   1.275       .  A
C193        C917   1.498       .  S
O194        C196   1.270       .  A
O195       Ni206   1.895       .  S
C196        O202   1.277   1_556  A
C196        C773   1.502       .  S
C197        C741   1.481   1_556  S
H198        O199   0.966       .  S
O199       Ni207   1.914       .  S
O199       Ni201   1.890   1_554  S
O199       Ni206   1.884       .  S
O200       Ni201   1.917       .  S
Ni201       O205   1.913       .  S
Ni201       O203   1.948       .  S
O202       Ni207   1.947       .  S
C204        O205   1.266       .  A
C204        C930   1.500       .  S
O209       Ni215   1.911       .  S
O209        C230   1.263       .  A
O210       Ni233   1.959       .  S
O210        C219   1.279       .  A
O211       Ni215   1.889       .  S
O211       Ni233   1.918       .  S
O211       Ni227   1.915       .  S
O211        H234   0.964       .  S
C212        O229   1.281       .  A
C212        O221   1.276       .  A
C212        C722   1.466       .  S
O213       Ni232   1.900       .  S
O213        C219   1.265       .  A
O214       Ni232   1.901       .  S
O214        C216   1.265       .  A
Ni215       O218   1.907       .  S
Ni215       O220   1.887       .  S
C216        O226   1.264       .  A
C216        C661   1.480       .  S
O217       Ni233   1.932       .  S
O217        C223   1.283       .  A
O218        C223   1.274       .  A
C219        C693   1.508       .  S
O220        C222   1.267       .  A
O221       Ni232   1.905       .  S
C222        O228   1.275       .  A
C222        C677   1.484       .  S
C223        C978   1.489       .  S
H224        O225   0.959       .  S
O225       Ni233   1.920       .  S
O225       Ni227   1.895       .  S
O225       Ni232   1.888       .  S
O226       Ni227   1.907       .  S
Ni227       O231   1.923       .  S
Ni227       O229   1.937       .  S
O228       Ni233   1.940       .  S
C230        O231   1.268       .  A
C230        C706   1.493       .  S
O235       Ni241   1.914       .  S
O235        C256   1.263       .  A
O236       Ni259   1.938       .  S
O236        C245   1.275       .  A
O237       Ni241   1.897       .  S
O237       Ni259   1.911       .  S
O237       Ni253   1.921       .  S
O237        H260   0.964   1_655  S
C238        O255   1.282       .  A
C238        O247   1.275       .  A
C238        C642   1.475       .  S
O239       Ni258   1.911       .  S
O239        C245   1.265   1_455  A
O240       Ni258   1.899       .  S
O240        C242   1.267       .  A
Ni241       O244   1.916       .  S
Ni241       O246   1.895       .  S
C242        O252   1.265       .  A
C242        C674   1.489       .  S
O243       Ni259   1.935       .  S
O243        C249   1.283       .  A
O244        C249   1.274       .  A
C245        C613   1.478       .  S
O246        C248   1.267       .  A
O247       Ni258   1.911       .  S
C248        O254   1.272       .  A
C248        C658   1.475       .  S
C249        C901   1.478       .  S
H250        O251   0.963       .  S
O251       Ni259   1.922       .  S
O251       Ni253   1.906       .  S
O251       Ni258   1.897   1_655  S
O252       Ni253   1.913   1_455  S
Ni253       O257   1.933   1_655  S
Ni253       O255   1.940   1_655  S
O254       Ni259   1.931       .  S
C256        O257   1.270   1_655  A
C256        C626   1.506       .  S
O261       Ni267   1.924       .  S
O261        C282   1.274       .  A
O262       Ni285   1.936       .  S
O262        C271   1.283       .  A
O263       Ni267   1.891       .  S
O263       Ni285   1.902       .  S
O263       Ni279   1.921       .  S
O263        H286   0.966   1_455  S
C264        O281   1.285   1_455  A
C264        O273   1.277       .  A
C264        C645   1.470       .  S
O265       Ni284   1.902       .  S
O265        C271   1.262   1_655  A
O266       Ni284   1.903       .  S
O266        C268   1.262       .  A
Ni267       O270   1.920       .  S
Ni267       O272   1.910       .  S
C268        O278   1.274       .  A
C268        C546   1.492       .  S
O269       Ni285   1.937       .  S
O269        C275   1.287       .  A
O270        C275   1.276       .  A
C271        C581   1.486   1_455  S
O272        C274   1.273       .  A
O273       Ni284   1.903   1_455  S
C274        O280   1.275       .  A
C274        C562   1.492       .  S
C275       C1125   1.486       .  S
H276        O277   0.966       .  S
O277       Ni285   1.918       .  S
O277       Ni279   1.878       .  S
O277       Ni284   1.874   1_455  S
O278       Ni279   1.934   1_655  S
Ni279       O283   1.912   1_455  S
Ni279       O281   1.948   1_455  S
O280       Ni285   1.943       .  S
C282        O283   1.267   1_455  A
C282        C597   1.500       .  S
O287       Ni293   1.901       .  S
O287        C308   1.259       .  A
O288       Ni311   1.949       .  S
O288        C297   1.280       .  A
O289       Ni293   1.885       .  S
O289       Ni311   1.906       .  S
O289       Ni305   1.917       .  S
O289        H312   0.966       .  S
C290        O307   1.280       .  A
C290        O299   1.278       .  A
C290        C725   1.467       .  S
O291       Ni310   1.901       .  S
O291        C297   1.268       .  A
O292       Ni310   1.906       .  S
O292        C294   1.265       .  A
Ni293       O296   1.899       .  S
Ni293       O298   1.893       .  S
C294        O304   1.274       .  A
C294        C565   1.481       .  S
O295       Ni311   1.944       .  S
O295        C301   1.287       .  A
O296        C301   1.275       .  A
C297        C514   1.498       .  S
O298        C300   1.264       .  A
O299       Ni310   1.912       .  S
C300        O306   1.276       .  A
C300        C549   1.480       .  S
C301       C1026   1.498       .  S
H302        O303   0.966       .  S
O303       Ni311   1.924       .  S
O303       Ni305   1.893       .  S
O303       Ni310   1.878       .  S
O304       Ni305   1.938       .  S
Ni305       O309   1.921       .  S
Ni305       O307   1.931       .  S
O306       Ni311   1.941       .  S
C308        O309   1.269       .  A
C308        C530   1.487       .  S
O313       Ni319   1.904       .  S
O313        C334   1.267   1_655  A
O314       Ni337   1.922   1_655  S
O314        C323   1.270   1_655  A
O315       Ni319   1.891   1_454  S
O315       Ni337   1.898       .  S
O315       Ni331   1.918       .  S
O315        H338   0.966       .  S
C316        O333   1.281       .  A
C316        O325   1.274       .  A
C316        C786   1.478       .  S
O317       Ni336   1.929       .  S
O317        C323   1.272       .  A
O318       Ni336   1.902       .  S
O318        C320   1.268       .  A
Ni319       O322   1.908   1_556  S
Ni319       O324   1.907   1_556  S
C320        O330   1.280       .  A
C320        C485   1.488       .  S
O321       Ni337   1.950   1_655  S
O321        C327   1.284       .  A
O322        C327   1.276       .  A
C323        C610   1.495   1_455  S
O324        C326   1.265       .  A
O325       Ni336   1.919       .  S
C326        O332   1.272       .  A
C326        C469   1.479       .  S
C327        C498   1.477       .  S
H328        O329   0.966   1_655  S
O329       Ni337   1.920       .  S
O329       Ni331   1.919       .  S
O329       Ni336   1.901       .  S
O330       Ni331   1.949       .  S
Ni331       O335   1.951   1_554  S
Ni331       O333   1.932       .  S
O332       Ni337   1.933   1_655  S
C334        O335   1.280       .  A
C334        C629   1.493       .  S
O339       Ni345   1.901       .  S
O339        C360   1.267       .  A
O340       Ni363   1.920       .  S
O340        C349   1.270       .  A
O341       Ni345   1.882   1_554  S
O341       Ni363   1.893       .  S
O341       Ni357   1.919       .  S
O341        H364   0.966       .  S
C342        O359   1.282       .  A
C342        O351   1.273       .  A
C342        C738   1.477       .  S
O343       Ni362   1.914       .  S
O343        C349   1.265       .  A
O344       Ni362   1.894       .  S
O344        C346   1.268       .  A
Ni345       O348   1.905   1_556  S
Ni345       O350   1.907   1_556  S
C346        O356   1.275       .  A
C346        C466   1.487       .  S
O347       Ni363   1.940       .  S
O347        C353   1.282       .  A
O348        C353   1.276       .  A
C349        C690   1.485       .  S
O350        C352   1.263       .  A
O351       Ni362   1.905       .  S
C352        O358   1.274       .  A
C352        C482   1.500       .  S
C353        C450   1.468       .  S
H354        O355   0.966       .  S
O355       Ni363   1.916       .  S
O355       Ni357   1.915       .  S
O355       Ni362   1.895       .  S
O356       Ni357   1.943       .  S
Ni357       O361   1.945   1_554  S
Ni357       O359   1.929       .  S
O358       Ni363   1.932       .  S
C360        O361   1.278       .  A
C360        C709   1.494       .  S
O365       Ni371   1.904       .  S
O365        C386   1.268       .  A
O366       Ni389   1.925       .  S
O366        C375   1.269       .  A
O367       Ni371   1.884   1_554  S
O367       Ni389   1.897       .  S
O367       Ni383   1.920       .  S
O367        H390   0.966       .  S
C368        O385   1.286       .  A
C368        O377   1.270       .  A
C368        C869   1.483       .  S
O369       Ni388   1.915       .  S
O369        C375   1.265       .  A
O370       Ni388   1.898       .  S
O370        C372   1.270       .  A
Ni371       O374   1.908   1_556  S
Ni371       O376   1.905   1_556  S
C372        O382   1.268       .  A
C372        C434   1.492       .  S
O373       Ni389   1.937       .  S
O373        C379   1.281       .  A
O374        C379   1.276       .  A
C375        C517   1.496       .  S
O376        C378   1.265       .  A
O377       Ni388   1.905       .  S
C378        O384   1.271       .  A
C378        C421   1.475       .  S
C379        C453   1.468       .  S
H380        O381   0.966       .  S
O381       Ni389   1.916       .  S
O381       Ni383   1.917       .  S
O381       Ni388   1.895       .  S
O382       Ni383   1.927       .  S
Ni383       O387   1.943   1_554  S
Ni383       O385   1.935       .  S
O384       Ni389   1.924       .  S
C386        O387   1.277       .  A
C386        C533   1.493       .  S
O391       Ni397   1.910       .  S
O391        C412   1.267   1_455  A
O392       Ni415   1.947   1_455  S
O392        C401   1.278   1_455  A
O393       Ni397   1.890   1_654  S
O393       Ni415   1.904       .  S
O393       Ni409   1.918       .  S
O393        H416   0.966       .  S
C394        O411   1.281       .  A
C394        O403   1.273       .  A
C394        C805   1.476       .  S
O395       Ni414   1.919       .  S
O395        C401   1.268       .  A
O396       Ni414   1.899       .  S
O396        C398   1.265       .  A
Ni397       O400   1.905   1_556  S
Ni397       O402   1.900   1_556  S
C398        O408   1.275       .  A
C398        C418   1.486       .  S
O399       Ni415   1.949   1_455  S
O399        C405   1.285       .  A
O400        C405   1.275       .  A
C401        C578   1.509       .  S
O402        C404   1.266       .  A
O403       Ni414   1.917       .  S
C404        O410   1.278       .  A
C404        C437   1.489       .  S
C405        C501   1.474       .  S
H406        O407   0.966   1_455  S
O407       Ni415   1.919       .  S
O407       Ni409   1.916       .  S
O407       Ni414   1.904       .  S
O408       Ni409   1.938       .  S
Ni409       O413   1.939   1_554  S
Ni409       O411   1.930       .  S
O410       Ni415   1.942   1_455  S
C412        O413   1.276       .  A
C412        C594   1.486       .  S
C417        C418   1.405       .  A
C417        C422   1.406       .  A
C417        H424   1.081   1_554  S
C418        C419   1.423       .  A
C419        C420   1.406       .  A
C419        C426   1.520       .  S
C420        C421   1.399       .  A
C420        H425   1.084       .  S
C421        C422   1.416       .  A
C422        C423   1.519   1_554  S
C423        F427   1.385       .  S
C423        F428   1.384       .  S
C423        F429   1.382       .  S
C426        F430   1.382       .  S
C426        F431   1.384       .  S
C426        F432   1.385       .  S
C433        C434   1.398       .  A
C433        C438   1.395       .  A
C433        H440   1.083       .  S
C434        C435   1.424       .  A
C435        C436   1.410       .  A
C435        C442   1.509   1_554  S
C436        C437   1.401       .  A
C436        H441   1.080   1_554  S
C437        C438   1.410       .  A
C438        C439   1.489       .  S
C439        F443   1.386       .  S
C439        F444   1.380       .  S
C439        F445   1.373       .  S
C442        F446   1.376       .  S
C442        F447   1.383       .  S
C442        F448   1.385       .  S
C449        C450   1.400       .  A
C449        C454   1.405       .  A
C449        H456   1.083       .  S
C450        C451   1.415       .  A
C451        C452   1.407       .  A
C451        C458   1.518       .  S
C452        C453   1.400       .  A
C452        H457   1.083       .  S
C453        C454   1.415       .  A
C454        C455   1.518       .  S
C455        F459   1.385       .  S
C455        F460   1.383       .  S
C455        F461   1.383       .  S
C458        F462   1.383       .  S
C458        F463   1.383       .  S
C458        F464   1.385       .  S
C465        C466   1.403       .  A
C465        C470   1.399       .  A
C465        H472   1.085       .  S
C466        C467   1.420       .  A
C467        C468   1.412       .  A
C467        C474   1.516   1_554  S
C468        C469   1.406       .  A
C468        H473   1.084   1_554  S
C469        C470   1.417       .  A
C470        C471   1.513       .  S
C471        F475   1.384       .  S
C471        F476   1.374       .  S
C471        F477   1.383       .  S
C474        F478   1.380       .  S
C474        F479   1.383       .  S
C474        F480   1.385       .  S
C481        C482   1.405       .  A
C481        C486   1.406       .  A
C481        H488   1.082       .  S
C482        C483   1.430       .  A
C483        C484   1.413       .  A
C483        C490   1.521       .  S
C484        C485   1.401       .  A
C484        H489   1.083       .  S
C485        C486   1.421       .  A
C486        C487   1.522       .  S
C487        F491   1.385       .  S
C487        F492   1.382       .  S
C487        F493   1.382       .  S
C490        F494   1.383   1_554  S
C490        F495   1.384       .  S
C490        F496   1.385   1_554  S
C497        C498   1.402   1_455  A
C497        C502   1.407       .  A
C497        H504   1.084       .  S
C498        C499   1.416       .  A
C499        C500   1.408       .  A
C499        C506   1.514       .  S
C500        C501   1.401   1_655  A
C500        H505   1.084       .  S
C501        C502   1.415       .  A
C502        C503   1.516       .  S
C503        F507   1.385       .  S
C503        F508   1.379       .  S
C503        F509   1.383       .  S
C506        F510   1.380       .  S
C506        F511   1.384       .  S
C506        F512   1.385       .  S
C513        C514   1.407       .  A
C513        C518   1.400       .  A
C513        H520   1.083       .  S
C514        C515   1.418       .  A
C515        C516   1.419       .  A
C515        C522   1.515       .  S
C516        C517   1.412       .  A
C516        H521   1.083       .  S
C517        C518   1.423       .  A
C518        C519   1.527       .  S
C519        F523   1.385       .  S
C519        F524   1.384       .  S
C519        F525   1.383       .  S
C522        F526   1.383       .  S
C522        F527   1.383       .  S
C522        F528   1.385       .  S
C529        C530   1.404       .  A
C529        C534   1.409       .  A
C529        H536   1.083       .  S
C530        C531   1.424       .  A
C531        C532   1.401       .  A
C531        C538   1.525       .  S
C532        C533   1.404       .  A
C532        H537   1.082       .  S
C533        C534   1.419       .  A
C534        C535   1.507       .  S
C535        F539   1.385       .  S
C535        F540   1.382       .  S
C535        F541   1.381       .  S
C538        F542   1.383       .  S
C538        F543   1.384       .  S
C538        F544   1.385       .  S
C545        C546   1.404       .  A
C545        C550   1.404       .  A
C545        H552   1.083       .  S
C546        C547   1.429       .  A
C547        C548   1.410       .  A
C547        C554   1.521       .  S
C548        C549   1.400       .  A
C548        H553   1.083       .  S
C549        C550   1.420       .  A
C550        C551   1.521       .  S
C551        F555   1.385       .  S
C551        F556   1.382       .  S
C551        F557   1.383       .  S
C554        F558   1.383       .  S
C554        F559   1.383       .  S
C554        F560   1.385       .  S
C561        C562   1.410       .  A
C561        C566   1.407       .  A
C561        H568   1.083       .  S
C562        C563   1.431       .  A
C563        C564   1.410       .  A
C563        C570   1.524       .  S
C564        C565   1.401       .  A
C564        H569   1.085       .  S
C565        C566   1.410       .  A
C566        C567   1.515       .  S
C567        F571   1.384       .  S
C567        F572   1.382       .  S
C567        F573   1.381       .  S
C570        F574   1.384       .  S
C570        F575   1.375       .  S
C570        F576   1.383       .  S
C577        C578   1.405       .  A
C577        C582   1.407       .  A
C577        H584   1.083       .  S
C578        C579   1.422   1_655  A
C579        C580   1.404       .  A
C579        C586   1.487       .  S
C580        C581   1.392   1_455  A
C580        H585   1.083       .  S
C581        C582   1.427       .  A
C582        C583   1.522       .  S
C583        F587   1.385       .  S
C583        F588   1.384       .  S
C583        F589   1.382       .  S
C586        F590   1.384       .  S
C586        F591   1.376       .  S
C586        F592   1.385       .  S
C593        C594   1.404       .  A
C593        C598   1.418       .  A
C593        H600   1.083       .  S
C594        C595   1.418   1_655  A
C595        C596   1.399       .  A
C595        C602   1.518       .  S
C596        C597   1.405       .  A
C596        H601   1.083       .  S
C597        C598   1.428   1_455  A
C598        C599   1.520       .  S
C599        F603   1.385       .  S
C599        F604   1.383       .  S
C599        F605   1.384       .  S
C602        F606   1.381       .  S
C602        F607   1.384       .  S
C602        F608   1.385       .  S
C609        C610   1.410   1_455  A
C609        C614   1.409       .  A
C609        H616   1.083       .  S
C610        C611   1.421       .  A
C611        C612   1.412       .  A
C611        C618   1.515       .  S
C612        C613   1.403       .  A
C612        H617   1.083       .  S
C613        C614   1.412   1_655  A
C614        C615   1.517       .  S
C615        F619   1.385       .  S
C615        F620   1.383   1_455  S
C615        F621   1.383       .  S
C618        F622   1.376       .  S
C618        F623   1.384       .  S
C618        F624   1.385       .  S
C625        C626   1.415   1_455  A
C625        C630   1.419       .  A
C625        H632   1.082       .  S
C626        C627   1.429       .  A
C627        C628   1.405       .  A
C627        C634   1.526       .  S
C628        C629   1.403   1_655  A
C628        H633   1.083       .  S
C629        C630   1.415       .  A
C630        C631   1.515       .  S
C631        F635   1.385       .  S
C631        F636   1.383       .  S
C631        F637   1.383       .  S
C634        F638   1.383       .  S
C634        F639   1.384       .  S
C634        F640   1.385       .  S
C641        C642   1.402       .  A
C641        C646   1.408       .  A
C641        H648   1.083       .  S
C642        C643   1.416   1_455  A
C643        C644   1.405       .  A
C643        C650   1.513       .  S
C644        C645   1.398   1_655  A
C644        H649   1.083       .  S
C645        C646   1.416       .  A
C646        C647   1.518       .  S
C647        F651   1.384       .  S
C647        F652   1.383       .  S
C647        F653   1.383       .  S
C650        F654   1.383       .  S
C650        F655   1.382       .  S
C650        F656   1.385       .  S
C657        C658   1.398       .  A
C657        C662   1.397       .  A
C657        H664   1.078       .  S
C658        C659   1.413       .  A
C659        C660   1.404       .  A
C659        C666   1.512       .  S
C660        C661   1.407       .  A
C660        H665   1.083       .  S
C661        C662   1.421       .  A
C662        C663   1.521       .  S
C663        F667   1.385       .  S
C663        F668   1.383       .  S
C663        F669   1.382       .  S
C666        F670   1.382       .  S
C666        F671   1.379       .  S
C666        F672   1.385       .  S
C673        C674   1.408       .  A
C673        C678   1.402       .  A
C673        H680   1.082       .  S
C674        C675   1.424       .  A
C675        C676   1.401       .  A
C675        C682   1.521       .  S
C676        C677   1.404       .  A
C676        H681   1.083       .  S
C677        C678   1.415       .  A
C678        C679   1.510       .  S
C679        F683   1.385       .  S
C679        F684   1.376       .  S
C679        F685   1.377       .  S
C682        F686   1.381       .  S
C682        F687   1.381       .  S
C682        F688   1.385       .  S
C689        C690   1.404       .  A
C689        C694   1.415       .  A
C689        H696   1.083       .  S
C690        C691   1.417       .  A
C691        C692   1.402       .  A
C691        C698   1.524       .  S
C692        C693   1.412       .  A
C692        H697   1.082       .  S
C693        C694   1.423       .  A
C694        C695   1.509       .  S
C695        F699   1.385       .  S
C695        F700   1.378       .  S
C695        F701   1.380       .  S
C698        F702   1.384       .  S
C698        F703   1.383       .  S
C698        F704   1.385       .  S
C705        C706   1.410       .  A
C705        C710   1.416       .  A
C705        H712   1.083       .  S
C706        C707   1.423       .  A
C707        C708   1.400       .  A
C707        C714   1.526       .  S
C708        C709   1.406       .  A
C708        H713   1.083       .  S
C709        C710   1.417       .  A
C710        C711   1.514       .  S
C711        F715   1.385       .  S
C711        F716   1.383       .  S
C711        F717   1.383       .  S
C714        F718   1.383       .  S
C714        F719   1.384       .  S
C714        F720   1.385       .  S
C721        C722   1.401       .  A
C721        C726   1.406       .  A
C721        H728   1.083       .  S
C722        C723   1.414       .  A
C723        C724   1.403       .  A
C723        C730   1.516       .  S
C724        C725   1.398       .  A
C724        H729   1.080       .  S
C725        C726   1.414       .  A
C726        C727   1.518       .  S
C727        F731   1.384       .  S
C727        F732   1.383       .  S
C727        F733   1.383       .  S
C730        F734   1.383       .  S
C730        F735   1.381       .  S
C730        F736   1.385       .  S
C737        C738   1.409       .  A
C737        C742   1.405       .  A
C737        H744   1.083       .  S
C738        C739   1.411       .  A
C739        C740   1.406   1_554  A
C739        C746   1.518   1_554  S
C740        C741   1.411   1_556  A
C740        H745   1.083       .  S
C741        C742   1.414       .  A
C742        C743   1.520       .  S
C743        F747   1.385       .  S
C743        F748   1.383       .  S
C743        F749   1.383       .  S
C746        F750   1.383       .  S
C746        F751   1.383   1_556  S
C746        F752   1.385       .  S
C753        C754   1.401   1_655  A
C753        C758   1.403       .  A
C753        H760   1.083   1_655  S
C754        C755   1.416   1_556  A
C755        C756   1.409   1_455  A
C755        C762   1.516       .  S
C756        C757   1.409   1_554  A
C756        H761   1.082       .  S
C757        C758   1.424       .  A
C758        C759   1.521       .  S
C759        F763   1.385       .  S
C759        F764   1.383       .  S
C759        F765   1.382       .  S
C762        F766   1.381       .  S
C762        F767   1.382   1_554  S
C762        F768   1.385       .  S
C769        C770   1.408   1_554  A
C769        C774   1.411       .  A
C769        H776   1.083       .  S
C770        C771   1.416       .  A
C771        C772   1.402       .  A
C771        C778   1.522       .  S
C772        C773   1.413       .  A
C772        H777   1.081       .  S
C773        C774   1.425   1_556  A
C774        C775   1.522       .  S
C775        F779   1.385       .  S
C775        F780   1.383       .  S
C775        F781   1.383       .  S
C778        F782   1.383       .  S
C778        F783   1.383       .  S
C778        F784   1.385       .  S
C785        C786   1.406       .  A
C785        C790   1.408       .  A
C785        H792   1.084       .  S
C786        C787   1.421   1_554  A
C787        C788   1.407       .  A
C787        C794   1.519       .  S
C788        C789   1.403   1_556  A
C788        H793   1.085       .  S
C789        C790   1.413       .  A
C790        C791   1.516       .  S
C791        F795   1.385       .  S
C791        F796   1.382       .  S
C791        F797   1.381       .  S
C794        F798   1.384       .  S
C794        F799   1.378       .  S
C794        F800   1.383       .  S
C801        C802   1.400       .  A
C801        C806   1.407       .  A
C801        H808   1.083       .  S
C802        C803   1.422       .  A
C803        C804   1.407       .  A
C803        C810   1.516       .  S
C804        C805   1.398       .  A
C804        H809   1.083       .  S
C805        C806   1.419       .  A
C806        C807   1.517       .  S
C807        F811   1.385       .  S
C807        F812   1.382       .  S
C807        F813   1.381       .  S
C810        F814   1.383       .  S
C810        F815   1.380   1_554  S
C810        F816   1.385   1_655  S
C817        C818   1.399       .  A
C817        C822   1.398   1_565  A
C817        H824   1.084       .  S
C818        C819   1.416       .  A
C819        C820   1.412   1_565  A
C819        C826   1.515       .  S
C820        C821   1.403       .  A
C820        H825   1.083       .  S
C821        C822   1.419       .  A
C822        C823   1.522   1_556  S
C823        F827   1.385       .  S
C823        F828   1.383   1_554  S
C823        F829   1.383       .  S
C826        F830   1.383       .  S
C826        F831   1.382       .  S
C826        F832   1.384       .  S
C833        C834   1.396   1_554  A
C833        C838   1.403       .  A
C833        H840   1.082       .  S
C834        C835   1.427       .  A
C835        C836   1.402       .  A
C835        C842   1.521       .  S
C836        C837   1.403       .  A
C836        H841   1.080       .  S
C837        C838   1.431   1_556  A
C838        C839   1.511       .  S
C839        F843   1.386       .  S
C839        F844   1.382       .  S
C839        F845   1.366       .  S
C842        F846   1.380       .  S
C842        F847   1.376       .  S
C842        F848   1.377       .  S
C849        C850   1.411   1_554  A
C849        C854   1.408   1_455  A
C849        H856   1.082       .  S
C850        C851   1.423       .  A
C851        C852   1.401       .  A
C851        C858   1.521       .  S
C852        C853   1.401   1_455  A
C852        H857   1.081   1_455  S
C853        C854   1.414   1_556  A
C854        C855   1.517       .  S
C855        F859   1.385       .  S
C855        F860   1.382       .  S
C855        F861   1.381       .  S
C858        F862   1.383       .  S
C858        F863   1.382       .  S
C858        F864   1.385       .  S
C865        C866   1.397       .  A
C865        C870   1.409       .  A
C865        H872   1.083       .  S
C866        C867   1.425   1_554  A
C867        C868   1.403   1_556  A
C867        C874   1.515       .  S
C868        C869   1.395       .  A
C868        H873   1.083   1_554  S
C869        C870   1.430       .  A
C870        C871   1.522       .  S
C871        F875   1.385       .  S
C871        F876   1.382       .  S
C871        F877   1.382       .  S
C874        F878   1.382       .  S
C874        F879   1.382       .  S
C874        F880   1.385       .  S
C881        C882   1.403       .  A
C881        C886   1.407   1_565  A
C881        H888   1.084       .  S
C882        C883   1.413       .  A
C883        C884   1.407   1_565  A
C883        C890   1.517       .  S
C884        C885   1.403       .  A
C884        H889   1.084       .  S
C885        C886   1.414       .  A
C886        C887   1.517       .  S
C887        F891   1.384       .  S
C887        F892   1.383       .  S
C887        F893   1.382       .  S
C890        F894   1.383   1_556  S
C890        F895   1.383       .  S
C890        F896   1.384       .  S
C897        C898   1.398       .  A
C897        C902   1.405       .  A
C897        H904   1.084       .  S
C898        C899   1.424       .  A
C899        C900   1.406       .  A
C899        C906   1.515       .  S
C900        C901   1.397       .  A
C900        H905   1.085       .  S
C901        C902   1.420       .  A
C902        C903   1.513       .  S
C903        F907   1.385       .  S
C903        F908   1.383       .  S
C903        F909   1.381       .  S
C906        F910   1.382   1_655  S
C906        F911   1.380       .  S
C906        F912   1.384   1_655  S
C913        C914   1.399       .  A
C913        C918   1.399       .  A
C913        H920   1.084       .  S
C914        C915   1.420       .  A
C915        C916   1.421       .  A
C915        C922   1.516       .  S
C916        C917   1.410       .  A
C916        H921   1.083       .  S
C917        C918   1.430       .  A
C918        C919   1.528       .  S
C919        F923   1.385       .  S
C919        F924   1.384       .  S
C919        F925   1.384       .  S
C922        F926   1.383       .  S
C922        F927   1.383       .  S
C922        F928   1.384       .  S
C929        C930   1.410       .  A
C929        C934   1.403       .  A
C929        H936   1.082       .  S
C930        C931   1.427       .  A
C931        C932   1.415       .  A
C931        C938   1.520       .  S
C932        C933   1.402       .  A
C932        H937   1.083       .  S
C933        C934   1.412       .  A
C934        C935   1.521       .  S
C935        F939   1.385       .  S
C935        F940   1.382       .  S
C935        F941   1.383       .  S
C938        F942   1.383       .  S
C938        F943   1.383       .  S
C938        F944   1.385       .  S
C945        C946   1.406       .  A
C945        C950   1.404       .  A
C945        H952   1.082       .  S
C946        C947   1.432       .  A
C947        C948   1.414       .  A
C947        C954   1.522       .  S
C948        C949   1.402       .  A
C948        H953   1.083       .  S
C949        C950   1.424       .  A
C950        C951   1.524       .  S
C951        F955   1.385       .  S
C951        F956   1.384       .  S
C951        F957   1.383       .  S
C954        F958   1.384       .  S
C954        F959   1.383       .  S
C954        F960   1.385       .  S
C961        C962   1.402       .  A
C961        C966   1.413   1_655  A
C961        H968   1.083       .  S
C962        C963   1.422   1_655  A
C963        C964   1.405       .  A
C963        C970   1.524       .  S
C964        C965   1.408       .  A
C964        H969   1.082       .  S
C965        C966   1.431       .  A
C966        C967   1.522       .  S
C967        F971   1.385       .  S
C967        F972   1.383       .  S
C967        F973   1.384       .  S
C970        F974   1.385       .  S
C970        F975   1.379   1_455  S
C970        F976   1.382   1_455  S
C977        C978   1.411       .  A
C977        C982   1.406       .  A
C977        H984   1.083       .  S
C978        C979   1.415       .  A
C979        C980   1.407       .  A
C979        C986   1.518       .  S
C980        C981   1.412       .  A
C980        H985   1.083       .  S
C981        C982   1.415       .  A
C982        C983   1.518       .  S
C983        F987   1.385       .  S
C983        F988   1.383       .  S
C983        F989   1.383       .  S
C986        F990   1.383       .  S
C986        F991   1.383       .  S
C986        F992   1.385       .  S
C993        C994   1.406       .  A
C993        C998   1.400       .  A
C993       H1000   1.083       .  S
C994        C995   1.419       .  A
C995        C996   1.417       .  A
C995       C1002   1.514       .  S
C996        C997   1.411       .  A
C996       H1001   1.083       .  S
C997        C998   1.423       .  A
C998        C999   1.526       .  S
C999       F1003   1.385       .  S
C999       F1004   1.384       .  S
C999       F1005   1.383       .  S
C1002      F1006   1.382       .  S
C1002      F1007   1.382       .  S
C1002      F1008   1.385       .  S
C1009      C1010   1.412       .  A
C1009      C1014   1.401       .  A
C1009      H1016   1.082       .  S
C1010      C1011   1.422       .  A
C1011      C1012   1.419       .  A
C1011      C1018   1.515       .  S
C1012      C1013   1.409       .  A
C1012      H1017   1.082       .  S
C1013      C1014   1.417       .  A
C1014      C1015   1.524       .  S
C1015      F1019   1.385       .  S
C1015      F1020   1.383       .  S
C1015      F1021   1.384       .  S
C1018      F1022   1.380       .  S
C1018      F1023   1.383       .  S
C1018      F1024   1.385       .  S
C1025      C1026   1.416       .  A
C1025      C1030   1.407       .  A
C1025      H1032   1.081       .  S
C1026      C1027   1.413       .  A
C1027      C1028   1.407       .  A
C1027      C1034   1.521       .  S
C1028      C1029   1.419       .  A
C1028      H1033   1.080       .  S
C1029      C1030   1.417       .  A
C1030      C1031   1.522       .  S
C1031      F1035   1.385       .  S
C1031      F1036   1.383       .  S
C1031      F1037   1.383       .  S
C1034      F1038   1.383       .  S
C1034      F1039   1.383       .  S
C1034      F1040   1.385       .  S
C1041      C1042   1.407       .  A
C1041      C1046   1.416       .  A
C1041      H1048   1.082       .  S
C1042      C1043   1.431       .  A
C1043      C1044   1.389       .  A
C1043      C1050   1.510       .  S
C1044      C1045   1.386       .  A
C1044      H1049   1.083       .  S
C1045      C1046   1.421       .  A
C1046      C1047   1.511       .  S
C1047      F1051   1.385       .  S
C1047      F1052   1.381       .  S
C1047      F1053   1.383       .  S
C1050      F1054   1.385       .  S
C1050      F1055   1.383       .  S
C1050      F1056   1.386       .  S
C1057      C1058   1.405       .  A
C1057      C1062   1.412       .  A
C1057      H1064   1.083       .  S
C1058      C1059   1.435       .  A
C1059      C1060   1.400       .  A
C1059      C1066   1.529       .  S
C1060      C1061   1.395       .  A
C1060      H1065   1.083       .  S
C1061      C1062   1.415       .  A
C1062      C1063   1.510       .  S
C1063      F1067   1.385       .  S
C1063      F1068   1.383       .  S
C1063      F1069   1.384       .  S
C1066      F1070   1.384       .  S
C1066      F1071   1.384       .  S
C1066      F1072   1.385       .  S
C1073      C1074   1.402       .  A
C1073      C1078   1.411   1_565  A
C1073      H1080   1.083       .  S
C1074      C1075   1.417       .  A
C1075      C1076   1.405   1_565  A
C1075      C1082   1.520       .  S
C1076      C1077   1.401       .  A
C1076      H1081   1.084       .  S
C1077      C1078   1.416       .  A
C1078      C1079   1.516       .  S
C1079      F1083   1.384       .  S
C1079      F1084   1.384       .  S
C1079      F1085   1.383       .  S
C1082      F1086   1.383       .  S
C1082      F1087   1.383       .  S
C1082      F1088   1.385       .  S
C1089      C1090   1.398   1_655  A
C1089      C1094   1.401       .  A
C1089      H1096   1.082   1_655  S
C1090      C1091   1.417       .  A
C1091      C1092   1.409   1_455  A
C1091      C1098   1.513       .  S
C1092      C1093   1.408       .  A
C1092      H1097   1.082       .  S
C1093      C1094   1.422       .  A
C1094      C1095   1.519       .  S
C1095      F1099   1.383       .  S
C1095      F1100   1.374       .  S
C1095      F1101   1.384       .  S
C1098      F1102   1.377       .  S
C1098      F1103   1.380       .  S
C1098      F1104   1.385       .  S
C1105      C1106   1.399       .  A
C1105      C1110   1.410       .  A
C1105      H1112   1.083       .  S
C1106      C1107   1.417       .  A
C1107      C1108   1.407       .  A
C1107      C1114   1.516       .  S
C1108      C1109   1.401       .  A
C1108      H1113   1.083       .  S
C1109      C1110   1.421       .  A
C1110      C1111   1.517       .  S
C1111      F1115   1.385       .  S
C1111      F1116   1.382       .  S
C1111      F1117   1.383       .  S
C1114      F1118   1.383       .  S
C1114      F1119   1.382       .  S
C1114      F1120   1.385       .  S
C1121      C1122   1.397       .  A
C1121      C1126   1.406       .  A
C1121      H1128   1.085       .  S
C1122      C1123   1.423       .  A
C1123      C1124   1.409       .  A
C1123      C1130   1.515       .  S
C1124      C1125   1.400       .  A
C1124      H1129   1.083       .  S
C1125      C1126   1.430       .  A
C1126      C1127   1.521       .  S
C1127      F1131   1.383       .  S
C1127      F1132   1.384       .  S
C1127      F1133   1.375       .  S
C1130      F1134   1.382       .  S
C1130      F1135   1.383       .  S
C1130      F1136   1.385   1_455  S
C1137      C1138   1.410       .  A
C1137      C1142   1.418       .  A
C1137      H1144   1.082       .  S
C1138      C1139   1.439       .  A
C1139      C1140   1.403       .  A
C1139      C1146   1.528       .  S
C1140      C1141   1.392       .  A
C1140      H1145   1.083       .  S
C1141      C1142   1.416       .  A
C1142      C1143   1.516       .  S
C1143      F1147   1.384       .  S
C1143      F1148   1.383       .  S
C1143      F1149   1.383       .  S
C1146      F1150   1.384       .  S
C1146      F1151   1.383       .  S
C1146      F1152   1.385       .  S
C1153      C1154   1.409       .  A
C1153      C1158   1.411       .  A
C1153      H1160   1.082       .  S
C1154      C1155   1.430       .  A
C1155      C1156   1.398       .  A
C1155      C1162   1.524       .  S
C1156      C1157   1.397       .  A
C1156      H1161   1.083       .  S
C1157      C1158   1.414       .  A
C1158      C1159   1.514       .  S
C1159      F1163   1.385       .  S
C1159      F1164   1.383       .  S
C1159      F1165   1.382       .  S
C1162      F1166   1.384       .  S
C1162      F1167   1.383       .  S
C1162      F1168   1.385       .  S
C1169      C1170   1.400       .  A
C1169      C1174   1.400   1_565  A
C1169      H1176   1.081       .  S
C1170      C1171   1.416       .  A
C1171      C1172   1.410   1_565  A
C1171      C1178   1.514       .  S
C1172      C1173   1.401       .  A
C1172      H1177   1.083       .  S
C1173      C1174   1.416       .  A
C1174      C1175   1.520       .  S
C1175      F1179   1.385       .  S
C1175      F1180   1.382       .  S
C1175      F1181   1.383       .  S
C1178      F1182   1.379       .  S
C1178      F1183   1.383       .  S
C1178      F1184   1.384       .  S
