geometry optimzed in LAMMPS
_audit_creation_date              2020-12-01 
_audit_creation_method            'lammps2cif' 
_symmetry_space_group_name_H-M    'P1' 
_symmetry_Int_Tables_number       1 
_symmetry_cell_setting            triclinic 
loop_ 
_symmetry_equiv_pos_as_xyz 
  x,y,z 
_cell_length_a                    44.35140171 
_cell_length_b                    29.202733105765237 
_cell_length_c                    55.75678603667456 
_cell_angle_alpha                 90.01681800454787 
_cell_angle_beta                  90.13003896057589 
_cell_angle_gamma                 90.16740360229164 
loop_ 
_atom_site_label 
_atom_site_type_symbol 
_atom_site_fract_x 
_atom_site_fract_y 
_atom_site_fract_z 
_atom_site_charge 
O1          O  0.71293905  0.31422743  0.63744699    -0.82100
C2          C  0.64037774  0.44444911  0.59243267     0.97300
O3          O  0.63235493  0.40324691  0.59558469    -0.71200
O4          O  0.67685046  0.35392693  0.57892118    -0.74800
Al5        Al  0.65499448  0.35276356  0.60812739     1.49000
C6          C  0.70438260  0.34469568  0.57642564     0.92500
O7          O  0.73355621  0.43185932  0.61283346    -0.81000
O8          O  0.68057885  0.41684584  0.66964417    -0.74600
Al9        Al  0.72020609  0.37369272  0.62512094     1.90100
O10         O  0.70482227  0.47275304  0.63620240    -0.73600
O11         O  0.62797505  0.41816577  0.64471262    -0.73500
O12         O  0.65677081  0.46436599  0.60797709    -0.79100
O13         O  0.62925637  0.34591457  0.63518834    -0.77300
O14         O  0.68133094  0.38798496  0.62391250    -1.13500
O15         O  0.67278995  0.29554656  0.61673600    -0.72700
C16         C  0.69527651  0.28410889  0.62923269     0.98100
C17         C  0.72835330  0.46865537  0.62389490     0.94400
Al18       Al  0.66839444  0.43881519  0.63841074     1.55600
O19         O  0.72259538  0.35027396  0.59353977    -0.77300
C20         C  0.61583550  0.37902557  0.64487815     0.98600
C21         C  0.70733317  0.40351027  0.67414777     0.93500
O22         O  0.72513170  0.39281476  0.65738074    -0.82600
O23         O  0.78992314  0.15321702  0.35181424    -0.82100
C24         C  0.86264358  0.09859801  0.42898532     0.97300
O25         O  0.86427076  0.07950210  0.40845747    -0.71200
O26         O  0.81197083  0.05351591  0.39281619    -0.74800
Al27       Al  0.84105962  0.09160287  0.37900670     1.49000
C28         C  0.78390357  0.05512947  0.39041307     0.92500
O29         O  0.77689407  0.15901948  0.41854097    -0.81000
O30         O  0.84041592  0.23064340  0.38451312    -0.74600
Al31       Al  0.78566506  0.15516140  0.38505343     1.90100
O32         O  0.81491410  0.20451745  0.42656270    -0.73600
O33         O  0.88451366  0.17017183  0.39172602    -0.73500
O34         O  0.85389970  0.13941291  0.43077433    -0.79100
O35         O  0.87371071  0.12176815  0.36331465    -0.77300
O36         O  0.82454415  0.14299217  0.39006131    -1.13500
O37         O  0.81953421  0.09338376  0.34811937    -0.72700
C38         C  0.80097828  0.12189067  0.33911196     0.98100
C39         C  0.78901748  0.18936698  0.43153734     0.94400
Al40       Al  0.84677022  0.18261053  0.40685390     1.55600
O41         O  0.77128766  0.09272748  0.38565908    -0.77300
C42         C  0.89231757  0.14824253  0.37329934     0.98600
C43         C  0.81418740  0.24629314  0.38110393     0.93500
O44         O  0.79125230  0.22044204  0.38265618    -0.82600
O45         O  0.28692742  0.36758254  0.65861761    -0.82100
C46         C  0.36496684  0.42189178  0.58528248     0.97300
O47         O  0.36517485  0.44095310  0.60587569    -0.71200
O48         O  0.31244537  0.46655011  0.62090937    -0.74800
Al49       Al  0.34142997  0.42755121  0.63467485     1.49000
C50         C  0.28426586  0.46334407  0.61953806     0.92500
O51         O  0.28006788  0.35745274  0.59142756    -0.81000
O52         O  0.34170977  0.28890051  0.62857475    -0.74600
Al53       Al  0.28624790  0.36333768  0.62522060     1.90100
O54         O  0.31892196  0.31351806  0.58560203    -0.73600
O55         O  0.38538131  0.34993696  0.62245316    -0.73500
O56         O  0.35687528  0.38075113  0.58306028    -0.79100
O57         O  0.37434335  0.39762776  0.65090949    -0.77300
O58         O  0.32546228  0.37619924  0.62245444    -1.13500
O59         O  0.31897146  0.42407666  0.66478129    -0.72700
C60         C  0.29786575  0.39800902  0.67207525     0.98100
C61         C  0.29344497  0.32761695  0.57911504     0.94400
Al62       Al  0.34884674  0.33702280  0.60646954     1.55600
O63         O  0.27162510  0.42502302  0.62239096    -0.77300
C64         C  0.39297140  0.37112399  0.64109034     0.98600
C65         C  0.31543684  0.27313160  0.63189975     0.93500
O66         O  0.29243916  0.29840037  0.62911316    -0.82600
O67         O  0.21038461  0.20247875  0.36807803    -0.82100
C68         C  0.14503079  0.07400759  0.42276029     0.97300
O69         O  0.13610001  0.11425277  0.41840330    -0.71200
O70         O  0.18163470  0.16587026  0.43028488    -0.74800
Al71       Al  0.15708846  0.16349371  0.40265334     1.49000
C72         C  0.20909649  0.17676161  0.43126956     0.92500
O73         O  0.23804848  0.09124752  0.39587710    -0.81000
O74         O  0.18015855  0.08915330  0.34232120    -0.74600
Al75       Al  0.22107468  0.14553352  0.38227601     1.90100
O76         O  0.20699361  0.04273481  0.37887905    -0.73600
O77         O  0.12886159  0.09218649  0.36923002    -0.73500
O78         O  0.16068916  0.05316202  0.40727420    -0.79100
O79         O  0.12898031  0.16556594  0.37686414    -0.77300
O80         O  0.18284766  0.12794608  0.38656678    -1.13500
O81         O  0.17295423  0.22081088  0.39163913    -0.72700
C82         C  0.19372231  0.23247821  0.37746282     0.98100
C83         C  0.23153124  0.05111960  0.38932850     0.94400
Al84       Al  0.17004789  0.07398084  0.37532331     1.55600
O85         O  0.22559203  0.17348327  0.41294688    -0.77300
C86         C  0.11584714  0.13064740  0.36852074     0.98600
C87         C  0.20636385  0.10226237  0.33591594     0.93500
O88         O  0.22401113  0.12098271  0.35084157    -0.82600
O89         O  0.21152681  0.80679208  0.63519815    -0.82100
C90         C  0.14350306  0.94342241  0.59027948     0.97300
O91         O  0.13391178  0.90278180  0.59299686    -0.71200
O92         O  0.17758032  0.85202260  0.57731444    -0.74800
Al93       Al  0.15501955  0.85038408  0.60579085     1.49000
C94         C  0.20515986  0.84401422  0.57441680     0.92500
O95         O  0.23592660  0.92454111  0.61308798    -0.81000
O96         O  0.18049198  0.91198703  0.66821827    -0.74600
Al97       Al  0.22041954  0.86671300  0.62413403     1.90100
O98         O  0.20703616  0.96647901  0.63567085    -0.73600
O99         O  0.12906726  0.91662398  0.64204484    -0.73500
O100        O  0.16019087  0.96134886  0.60625716    -0.79100
O101        O  0.12815425  0.84428510  0.63242133    -0.77300
O102        O  0.18192705  0.88338203  0.62236245    -1.13500
O103        O  0.17136454  0.79145214  0.61384277    -0.72700
C104        C  0.19366258  0.77799763  0.62606847     0.98100
C105        C  0.23101539  0.96138108  0.62412086     0.94400
Al106      Al  0.16995271  0.93473171  0.63679208     1.55600
O107        O  0.22327303  0.84588892  0.59188012    -0.77300
C108        C  0.11558943  0.87858719  0.64179081     0.98600
C109        C  0.20687731  0.89781537  0.67339018     0.93500
O110        O  0.22443798  0.88397772  0.65700320    -0.82600
O111        O  0.28769288  0.64802854  0.35011697    -0.82100
C112        C  0.35521941  0.59418669  0.42982030     0.97300
O113        O  0.35629507  0.57284427  0.40993177    -0.71200
O114        O  0.30287930  0.54957050  0.39485128    -0.74800
Al115      Al  0.33397628  0.58326141  0.38014533     1.49000
C116        C  0.27524154  0.55274405  0.39037723     0.92500
O117        O  0.27140928  0.65920557  0.41591216    -0.81000
O118        O  0.33846021  0.72317115  0.38153331    -0.74600
Al119      Al  0.28137586  0.65232502  0.38283825     1.90100
O120        O  0.31060272  0.70292202  0.42373155    -0.73600
O121        O  0.37965939  0.66033676  0.39104979    -0.73500
O122        O  0.34759768  0.63563487  0.43055323    -0.79100
O123        O  0.36823978  0.60838083  0.36425291    -0.77300
O124        O  0.31937792  0.63733732  0.38925999    -1.13500
O125        O  0.31289743  0.58337962  0.34898235    -0.72700
C126        C  0.29608127  0.61303914  0.33885440     0.98100
C127        C  0.28403212  0.69010687  0.42826615     0.94400
Al128      Al  0.34237758  0.67693339  0.40532449     1.55600
O129        O  0.26444588  0.59069328  0.38371281    -0.77300
C130        C  0.38700556  0.63555414  0.37356681     0.98600
C131        C  0.31305225  0.74078462  0.37714632     0.93500
O132        O  0.28919244  0.71708904  0.37936756    -0.82600
O133        O  0.79143965  0.87277772  0.66304241    -0.82100
C134        C  0.86494064  0.92886753  0.58676985     0.97300
O135        O  0.86602054  0.94790069  0.60735729    -0.71200
O136        O  0.81363254  0.97330580  0.62346078    -0.74800
Al137      Al  0.84318794  0.93471758  0.63680293     1.49000
C138        C  0.78541446  0.97020845  0.62418556     0.92500
O139        O  0.77930926  0.86684266  0.59624134    -0.81000
O140        O  0.84254121  0.79567431  0.63041638    -0.74600
Al141      Al  0.78771536  0.87058884  0.62977893     1.90100
O142        O  0.81767584  0.82240119  0.58852709    -0.73600
O143        O  0.88599945  0.85614331  0.62353738    -0.73500
O144        O  0.85626922  0.88796047  0.58478331    -0.79100
O145        O  0.87634767  0.90420457  0.65223429    -0.77300
O146        O  0.82662267  0.88340704  0.62525251    -1.13500
O147        O  0.82193295  0.93167328  0.66762606    -0.72700
C148        C  0.80242277  0.90393823  0.67603652     0.98100
C149        C  0.79191286  0.83716462  0.58330793     0.94400
Al150      Al  0.84889809  0.84425053  0.60837759     1.55600
O151        O  0.77305606  0.93231780  0.62873432    -0.77300
C152        C  0.89405199  0.87634287  0.64232833     0.98600
C153        C  0.81638766  0.77968305  0.63388859     0.93500
O154        O  0.79345732  0.80535929  0.63227676    -0.82600
O155        O  0.71003623  0.70950733  0.37800695    -0.82100
C156        C  0.63837431  0.58259717  0.42747199     0.97300
O157        O  0.63117840  0.62408708  0.42461376    -0.71200
O158        O  0.67741171  0.67236076  0.43785800    -0.74800
Al159      Al  0.65338183  0.67301536  0.41008723     1.49000
C160        C  0.70526779  0.67960127  0.43961127     0.92500
O161        O  0.73074606  0.59249865  0.40279142    -0.81000
O162        O  0.67428681  0.60517841  0.34823399    -0.74600
Al163      Al  0.71725160  0.65013293  0.39050708     1.90100
O164        O  0.69909061  0.55024676  0.38245351    -0.73600
O165        O  0.62345001  0.60672275  0.37498309    -0.73500
O166        O  0.65324202  0.56191347  0.41137755    -0.79100
O167        O  0.62508177  0.67903395  0.38463946    -0.77300
O168        O  0.67814716  0.63665701  0.39352210    -1.13500
O169        O  0.67120764  0.72915552  0.39982681    -0.72700
C170        C  0.69312548  0.73999135  0.38657493     0.98100
C171        C  0.72295284  0.55416755  0.39443305     0.94400
Al172      Al  0.66358998  0.58546116  0.38029414     1.55600
O173        O  0.72236514  0.67410520  0.42185782    -0.77300
C174        C  0.61107269  0.64542248  0.37580114     0.98600
C175        C  0.70061771  0.61863401  0.34238981     0.93500
O176        O  0.71964657  0.62981982  0.35827409    -0.82600
O177        O  0.79747645  0.30634408  0.87210642    -0.82100
C178        C  0.85808276  0.44044512  0.92549942     0.97300
O179        O  0.86867475  0.40065152  0.92233079    -0.71200
O180        O  0.82335039  0.34879246  0.93401478    -0.74800
Al181      Al  0.84909686  0.34905398  0.90721349     1.49000
C182        C  0.79617787  0.33643233  0.93409201     0.92500
O183        O  0.76862328  0.42037325  0.89599038    -0.81000
O184        O  0.82975516  0.41556205  0.84455281    -0.74600
Al185      Al  0.78608704  0.36433799  0.88437593     1.90100
O186        O  0.79950690  0.46577992  0.87685826    -0.73600
O187        O  0.87847259  0.41790016  0.87375364    -0.73500
O188        O  0.84321698  0.45933919  0.90879316    -0.79100
O189        O  0.87844703  0.34501262  0.88233946    -0.77300
O190        O  0.82392548  0.38242353  0.88938466    -1.13500
O191        O  0.83401725  0.29046025  0.89710991    -0.72700
C192        C  0.81383253  0.27734051  0.88263499     0.98100
C193        C  0.77448175  0.45869211  0.88663404     0.94400
Al194      Al  0.83692721  0.43526942  0.87708956     1.55600
O195        O  0.78016143  0.33890355  0.91542052    -0.77300
C196        C  0.89160339  0.37959585  0.87367579     0.98600
C197        C  0.80438921  0.40015836  0.83741837     0.93500
O198        O  0.78513660  0.38487959  0.85211373    -0.82600
O199        O  0.71554494  0.15471501  0.16174438    -0.82100
C200        C  0.64571564  0.09361169  0.08452632     0.97300
O201        O  0.64398238  0.07486994  0.10508359    -0.71200
O202        O  0.69708311  0.05181968  0.12086727    -0.74800
Al203      Al  0.66676154  0.08867074  0.13441776     1.49000
C204        C  0.72505684  0.05525853  0.12380980     0.92500
O205        O  0.72984217  0.15732886  0.09516982    -0.81000
O206        O  0.66500922  0.22828850  0.12776066    -0.74600
Al207      Al  0.72078488  0.15533661  0.12856648     1.90100
O208        O  0.69128251  0.20082060  0.08614560    -0.73600
O209        O  0.62240180  0.16544119  0.12100133    -0.73500
O210        O  0.65360815  0.13474282  0.08239372    -0.79100
O211        O  0.63307730  0.11724334  0.14960248    -0.77300
O212        O  0.68231564  0.14089335  0.12325860    -1.13500
O213        O  0.68819485  0.09210266  0.16533323    -0.72700
C214        C  0.70653761  0.12135621  0.17414486     0.98100
C215        C  0.71635057  0.18355976  0.08072645     0.94400
Al216      Al  0.65974906  0.17896090  0.10594855     1.55600
O217        O  0.73652757  0.09360344  0.12903377    -0.77300
C218        C  0.61455953  0.14353715  0.13939499     0.98600
C219        C  0.69082510  0.24528898  0.13159981     0.93500
O220        O  0.71425907  0.22070339  0.13001445    -0.82600
O221        O  0.21352446  0.35655903  0.84643669    -0.82100
C222        C  0.15153745  0.41097641  0.92877470     0.97300
O223        O  0.14723856  0.43012975  0.90858282    -0.71200
O224        O  0.19877134  0.45532874  0.89090683    -0.74800
Al225      Al  0.16750007  0.41917091  0.87810101     1.49000
C226        C  0.22640493  0.45258413  0.88630272     0.92500
O227        O  0.23475292  0.34682166  0.91199074    -0.81000
O228        O  0.16593145  0.27976460  0.88193819    -0.74600
Al229      Al  0.22195496  0.35282058  0.87929317     1.90100
O230        O  0.19663087  0.30314470  0.92213218    -0.73600
O231        O  0.12440584  0.34215715  0.89284917    -0.73500
O232        O  0.16008414  0.37000053  0.92994992    -0.79100
O233        O  0.13283951  0.39058010  0.86393798    -0.77300
O234        O  0.18420255  0.36653026  0.88729101    -1.13500
O235        O  0.18596022  0.41912068  0.84633937    -0.72700
C236        C  0.20246021  0.39027829  0.83549135     0.98100
C237        C  0.22332817  0.31657401  0.92541189     0.94400
Al238      Al  0.16327980  0.32729738  0.90515196     1.55600
O239        O  0.23750222  0.41483413  0.87969010    -0.77300
C240        C  0.11504804  0.36416396  0.87491484     0.98600
C241        C  0.19131270  0.26280871  0.87668137     0.93500
O242        O  0.21477223  0.28780475  0.87665153    -0.82600
O243        O  0.29367926  0.20007516  0.13582851    -0.82100
C244        C  0.36486716  0.07265766  0.08686275     0.97300
O245        O  0.37315584  0.11347171  0.09082662    -0.71200
O246        O  0.32828551  0.16325654  0.07686039    -0.74800
Al247      Al  0.35097728  0.16270141  0.10534717     1.49000
C248        C  0.30053286  0.17003389  0.07413840     0.92500
O249        O  0.27107513  0.08413938  0.11050166    -0.81000
O250        O  0.32651926  0.09140201  0.16532715    -0.74600
Al251      Al  0.28581593  0.14121903  0.12305292     1.90100
O252        O  0.30210357  0.03992449  0.13001732    -0.73600
O253        O  0.37805748  0.09360293  0.13966310    -0.73500
O254        O  0.34873022  0.05186817  0.10212238    -0.79100
O255        O  0.37808915  0.16681341  0.13204133    -0.77300
O256        O  0.32473354  0.12637661  0.12070696    -1.13500
O257        O  0.33367974  0.21960757  0.11546132    -0.72700
C258        C  0.31126452  0.23056600  0.12811095     0.98100
C259        C  0.27826443  0.04517780  0.11827765     0.94400
Al260      Al  0.33788982  0.07386169  0.13328793     1.55600
O261        O  0.28235489  0.16529833  0.09135016    -0.77300
C262        C  0.39123753  0.13182606  0.14014481     0.98600
C263        C  0.30044068  0.10574514  0.17109423     0.93500
O264        O  0.28233133  0.12074102  0.15538091    -0.82600
O265        O  0.29443841  0.79928995  0.87504687    -0.82100
C266        C  0.36423945  0.93157808  0.92249219     0.97300
O267        O  0.37290797  0.89071165  0.91932742    -0.71200
O268        O  0.32898896  0.83949355  0.93447398    -0.74800
Al269      Al  0.35120471  0.83962657  0.90572648     1.49000
C270        C  0.30166537  0.82917901  0.93701920     0.92500
O271        O  0.27122771  0.91446743  0.90116778    -0.81000
O272        O  0.32530254  0.90555110  0.84479234    -0.74600
Al273      Al  0.28584378  0.85765539  0.88818483     1.90100
O274        O  0.29975456  0.95826126  0.87894428    -0.73600
O275        O  0.37742780  0.90766018  0.87029084    -0.73500
O276        O  0.34745517  0.95066136  0.90703567    -0.79100
O277        O  0.37766212  0.83488222  0.87891488    -0.77300
O278        O  0.32446879  0.87402943  0.89001277    -1.13500
O279        O  0.33431559  0.78181333  0.89627632    -0.72700
C280        C  0.31241456  0.76973052  0.88316250     0.98100
C281        C  0.27625520  0.95238390  0.89109561     0.94400
Al282      Al  0.33667581  0.92613036  0.87638433     1.55600
O283        O  0.28339446  0.83244852  0.91972308    -0.77300
C284        C  0.39062781  0.86943540  0.87015091     0.98600
C285        C  0.29878702  0.89179458  0.83964886     0.93500
O286        O  0.28100421  0.87837045  0.85596026    -0.82600
O287        O  0.21352097  0.64373380  0.16346147    -0.82100
C288        C  0.14568304  0.58746218  0.08396141     0.97300
O289        O  0.14326329  0.56886207  0.10449037    -0.71200
O290        O  0.19533960  0.54347840  0.12094066    -0.74800
Al291      Al  0.16509818  0.58083156  0.13416727     1.49000
C292        C  0.22328821  0.54634847  0.12430386     0.92500
O293        O  0.23100817  0.65005891  0.09753087    -0.81000
O294        O  0.16476424  0.71992730  0.12866465    -0.74600
Al295      Al  0.22006132  0.64606283  0.13048263     1.90100
O296        O  0.19329856  0.69460237  0.08765864    -0.73600
O297        O  0.12194579  0.65819586  0.12000503    -0.73500
O298        O  0.15488799  0.62809177  0.08203196    -0.79100
O299        O  0.13178213  0.61047197  0.14896896    -0.77300
O300        O  0.18178499  0.63275483  0.12380681    -1.13500
O301        O  0.18487219  0.58221621  0.16537239    -0.72700
C302        C  0.20273768  0.61070988  0.17516889     0.98100
C303        C  0.21959568  0.67990404  0.08396986     0.94400
Al304      Al  0.16032165  0.67172201  0.10614001     1.55600
O305        O  0.23498019  0.58415511  0.13021549    -0.77300
C306        C  0.11357333  0.63665822  0.13843644     0.98600
C307        C  0.19050314  0.73626827  0.13346956     0.93500
O308        O  0.21376148  0.71116420  0.13274855    -0.82600
O309        O  0.71692248  0.86593606  0.85233355    -0.82100
C310        C  0.64413007  0.92053883  0.92920105     0.97300
O311        O  0.64284563  0.93841747  0.90845222    -0.71200
O312        O  0.69554942  0.96538879  0.89381026    -0.74800
Al313      Al  0.66623095  0.92689504  0.87970593     1.49000
C314        C  0.72373685  0.96287685  0.89212463     0.92500
O315        O  0.73110267  0.85805608  0.91880690    -0.81000
O316        O  0.66670204  0.78759600  0.88561606    -0.74600
Al317      Al  0.72157757  0.86303063  0.88553455     1.90100
O318        O  0.69267810  0.81392996  0.92731331    -0.73600
O319        O  0.62312196  0.84830589  0.89292959    -0.73500
O320        O  0.65365416  0.88017197  0.93189500    -0.79100
O321        O  0.63345797  0.89601025  0.86400984    -0.77300
O322        O  0.68284937  0.87547111  0.89085805    -1.13500
O323        O  0.68775699  0.92626660  0.84915970    -0.72700
C324        C  0.70641341  0.89831133  0.84005462     0.98100
C325        C  0.71892914  0.82799499  0.93184116     0.94400
Al326      Al  0.66077681  0.83608920  0.90791595     1.55600
O327        O  0.73603349  0.92526973  0.88685944    -0.77300
C328        C  0.61513537  0.86935251  0.87428842     0.98600
C329        C  0.69268194  0.77226992  0.88083658     0.93500
O330        O  0.71568848  0.79794081  0.88248344    -0.82600
O331        O  0.79487544  0.71217764  0.14235292    -0.82100
C332        C  0.85787463  0.57664770  0.09346666     0.97300
O333        O  0.86874592  0.61638333  0.09683693    -0.71200
O334        O  0.82682669  0.67194760  0.08285505    -0.74800
Al335      Al  0.84984137  0.66888152  0.11129318     1.49000
C336        C  0.79954301  0.68256108  0.08060520     0.92500
O337        O  0.76792962  0.59834887  0.11655087    -0.81000
O338        O  0.82299179  0.60422482  0.17292805    -0.74600
Al339      Al  0.78438273  0.65440443  0.12936750     1.90100
O340        O  0.79537753  0.55341948  0.13893143    -0.73600
O341        O  0.87494611  0.59803904  0.14626041    -0.73500
O342        O  0.84199636  0.55796901  0.10967175    -0.79100
O343        O  0.87747029  0.67063145  0.13756408    -0.77300
O344        O  0.82244161  0.63599306  0.12728342    -1.13500
O345        O  0.83537300  0.72789002  0.12151492    -0.72700
C346        C  0.81355360  0.74097702  0.13434576     0.98100
C347        C  0.77201864  0.56031350  0.12676141     0.94400
Al348      Al  0.83324339  0.58298025  0.14081406     1.55600
O349        O  0.78169481  0.67949902  0.09804678    -0.77300
C350        C  0.88947249  0.63522034  0.14621555     0.98600
C351        C  0.79659013  0.61895297  0.17783985     0.93500
O352        O  0.77969249  0.63401114  0.16133850    -0.82600
C353        C  0.76917594  0.80780088  0.98590024    -0.27900
C354        C  0.76146947  0.76233572  0.99140779     0.01700
C355        C  0.74154194  0.73813672  0.97649994     0.29800
C356        C  0.72851555  0.76002319  0.95688061    -0.19700
C357        C  0.73530810  0.80601728  0.95167366    -0.29100
C358        C  0.75639230  0.82965958  0.96596224     0.43900
C359        C  0.77177906  0.74170082  0.01399065     0.05000
O360        O  0.73325235  0.69401438  0.98185706    -0.57600
H361        H  0.71262762  0.74105325  0.94587326     0.18000
O362        O  0.76374142  0.87437362  0.96118411    -0.64300
H363        H  0.78450632  0.82661798  0.99744062     0.16400
C364        C  0.79335623  0.70656033  0.01424534     0.28700
C365        C  0.80199177  0.68682406  0.03606148    -0.25200
C366        C  0.78878142  0.70123258  0.05764434    -0.24500
C367        C  0.76674974  0.73596336  0.05720163     0.40100
C368        C  0.75862703  0.75617313  0.03546620    -0.26900
O369        O  0.80593701  0.69125809  0.99328460    -0.58800
H370        H  0.81897319  0.66020499  0.03612100     0.15800
O371        O  0.75416959  0.75207809  0.07801005    -0.60300
H372        H  0.74183773  0.78307506  0.03532229     0.14200
H373        H  0.74867675  0.89286821  0.97003519     0.46100
H374        H  0.82530977  0.70800495  0.99185607     0.41400
H375        H  0.73493081  0.73509808  0.07972566     0.44900
H376        H  0.74616096  0.67442042  0.97163227     0.36400
C377        C  0.96827967  0.67768896  0.16190692    -0.27900
C378        C  0.98535401  0.63768345  0.15872713     0.01700
C379        C  0.97009468  0.59584616  0.15506090     0.29800
C380        C  0.93855032  0.59509805  0.15294552    -0.19700
C381        C  0.92165785  0.63583763  0.15395903    -0.29100
C382        C  0.93680499  0.67708417  0.15941836     0.43900
C383        C  0.01873264  0.64096426  0.15593227     0.05000
O384        O  0.98586560  0.55594131  0.15193162    -0.57600
H385        H  0.92753592  0.56286649  0.14882661     0.18000
O386        O  0.92128783  0.71745666  0.16125540    -0.64300
H387        H  0.97956150  0.71003955  0.16520802     0.16400
C388        C  0.03109795  0.66997323  0.13831493     0.28700
C389        C  0.06207843  0.66959062  0.13373961    -0.25200
C390        C  0.08163186  0.64056795  0.14648165    -0.24500
C391        C  0.06948268  0.61312608  0.16502539     0.40100
C392        C  0.03826146  0.61321607  0.16946438    -0.26900
O393        O  0.01273994  0.69635584  0.12413885    -0.58800
H394        H  0.07058109  0.69108577  0.11942429     0.15800
O395        O  0.08755938  0.58455987  0.17821021    -0.60300
H396        H  0.02919662  0.59092057  0.18321638     0.14200
H397        H  0.91483953  0.71914633  0.17824724     0.46100
H398        H  0.01505598  0.72802632  0.13033173     0.41400
H399        H  0.09471130  0.60338035  0.19192090     0.44900
H400        H  0.99045252  0.55461496  0.13454352     0.36400
C401        C  0.53792876  0.89457659  0.84718584    -0.27900
C402        C  0.52007456  0.86009757  0.85774925     0.01700
C403        C  0.53468748  0.82556378  0.87110921     0.29800
C404        C  0.56592876  0.82745873  0.87480083    -0.19700
C405        C  0.58340433  0.86392694  0.86583006    -0.29100
C406        C  0.56913496  0.89706869  0.85137860     0.43900
C407        C  0.48633312  0.86329273  0.85711034     0.05000
O408        O  0.51855076  0.79110608  0.88185849    -0.57600
H409        H  0.57627755  0.80126763  0.88582101     0.18000
O410        O  0.58487567  0.93409339  0.84285833    -0.64300
H411        H  0.52744820  0.92100773  0.83642770     0.16400
C412        C  0.47180785  0.90505274  0.86244842     0.28700
C413        C  0.44043977  0.90679236  0.86459576    -0.25200
C414        C  0.42267870  0.86709876  0.86251439    -0.24500
C415        C  0.43683251  0.82563689  0.85620684     0.40100
C416        C  0.46830529  0.82410698  0.85324677    -0.26900
O417        O  0.48809727  0.94404615  0.86714930    -0.58800
H418        H  0.43022692  0.93904509  0.86964074     0.15800
O419        O  0.42034062  0.78613469  0.85363490    -0.60300
H420        H  0.47871168  0.79181483  0.84859175     0.14200
H421        H  0.59117130  0.92534155  0.82642918     0.46100
H422        H  0.49335286  0.94223815  0.88442286     0.41400
H423        H  0.41262145  0.78688226  0.83694957     0.44900
H424        H  0.51257523  0.80344519  0.89770257     0.36400
C425        C  0.25056153  0.76813027  0.04149915    -0.27900
C426        C  0.26479458  0.74064706  0.02439680     0.01700
C427        C  0.26666665  0.69297865  0.02807327     0.29800
C428        C  0.25313287  0.67320032  0.04831035    -0.19700
C429        C  0.23717809  0.70058503  0.06451773    -0.29100
C430        C  0.23676104  0.74845687  0.06141585     0.43900
C431        C  0.27521158  0.76221136  0.00198518     0.05000
O432        O  0.28172365  0.66576344  0.01202643    -0.57600
H433        H  0.25396983  0.63642070  0.05076994     0.18000
O434        O  0.22233209  0.77627417  0.07753140    -0.64300
H435        H  0.24914605  0.80484706  0.03890692     0.14800
C436        C  0.26133851  0.75110823  0.98003035     0.28700
C437        C  0.26948161  0.77449522  0.95920171    -0.25200
C438        C  0.29154423  0.80903534  0.95983578    -0.24500
C439        C  0.30543760  0.82024309  0.98183720     0.40100
C440        C  0.29689673  0.79726080  0.00279784    -0.26900
O441        O  0.23950455  0.71781852  0.97879966    -0.58800
H442        H  0.25894543  0.76484777  0.94237792     0.15800
O443        O  0.32665770  0.85443759  0.98314030    -0.60300
H444        H  0.30721218  0.80674610  0.01972957     0.14200
H445        H  0.23736332  0.78221149  0.09040636     0.46100
H446        H  0.22035826  0.73364596  0.98265356     0.41400
H447        H  0.34635972  0.83846093  0.98375862     0.44900
H448        H  0.26590747  0.64768330  0.00369977     0.36400
C449        C  0.39282552  0.95435288  0.98599450    -0.27900
C450        C  0.37737486  0.99466340  0.99178454     0.01700
C451        C  0.36048460  0.01684715  0.97381201     0.29800
C452        C  0.35796740  0.99747386  0.95086435    -0.19700
C453        C  0.37210106  0.95572045  0.94529382    -0.29100
C454        C  0.39046715  0.93496313  0.96302212     0.43900
C455        C  0.37766441  0.01228786  0.01683008     0.05000
O456        O  0.34533073  0.05661289  0.97877260    -0.57600
H457        H  0.34374506  0.01426541  0.93774244     0.18000
O458        O  0.40606637  0.89552045  0.95823756    -0.64300
H459        H  0.40636894  0.93735954  0.99950048     0.16400
C460        C  0.36520651  0.98645795  0.03571510     0.28700
C461        C  0.36273236  0.00552492  0.05874709    -0.25200
C462        C  0.37256879  0.05048029  0.06350610    -0.24500
C463        C  0.38637342  0.07545697  0.04467313     0.40100
C464        C  0.38879053  0.05628463  0.02168468    -0.26900
O465        O  0.35343719  0.94372982  0.03143719    -0.58800
H466        H  0.35208239  0.98551136  0.07270511     0.15800
O467        O  0.39692506  0.11913283  0.04824251    -0.60300
H468        H  0.39871178  0.07639100  0.00738637     0.14200
H469        H  0.39359233  0.87034886  0.96505896     0.46100
H470        H  0.36905869  0.92202418  0.03703701     0.41400
H471        H  0.38042820  0.13955650  0.04266667     0.44900
H472        H  0.32564366  0.04672757  0.98548825     0.36400
C473        C  0.22812424  0.84921481  0.14605812    -0.27900
C474        C  0.21398793  0.87704909  0.12888351     0.01700
C475        C  0.18865829  0.86032269  0.11645803     0.29800
C476        C  0.17894688  0.81518602  0.12019312    -0.19700
C477        C  0.19459044  0.78615261  0.13598286    -0.29100
C478        C  0.21853812  0.80408750  0.14970914     0.43900
C479        C  0.22793318  0.92144007  0.12248504     0.05000
O480        O  0.17525780  0.88618505  0.09891598    -0.57600
H481        H  0.16091212  0.80169870  0.10908280     0.18000
O482        O  0.23392117  0.77692780  0.16561172    -0.64300
H483        H  0.24753229  0.86193544  0.15587674     0.16400
C484        C  0.21366393  0.96342472  0.12740280     0.28700
C485        C  0.22917283  0.00480756  0.12359716    -0.25200
C486        C  0.25893576  0.00454670  0.11509076    -0.24500
C487        C  0.27231587  0.96258133  0.10873535     0.40100
C488        C  0.25689315  0.92150308  0.11251571    -0.26900
O489        O  0.18532802  0.96424026  0.13717339    -0.58800
H490        H  0.21882804  0.03674201  0.12899816     0.15800
O491        O  0.30122165  0.96128244  0.10008624    -0.60300
H492        H  0.26796086  0.88941167  0.10838829     0.14200
H493        H  0.22184155  0.77767221  0.18056650     0.46100
H494        H  0.18845775  0.96059518  0.15469956     0.41400
H495        H  0.29909119  0.96469735  0.08246866     0.44900
H496        H  0.15639816  0.89771793  0.10617518     0.36400
C497        C  0.26690335  0.33860203  0.14183838    -0.27900
C498        C  0.28385472  0.37185963  0.12971920     0.01700
C499        C  0.31208008  0.35979515  0.12020773     0.29800
C500        C  0.32188239  0.31413372  0.12130595    -0.19700
C501        C  0.30385645  0.27985606  0.13192146    -0.29100
C502        C  0.27658625  0.29309393  0.14303837     0.43900
C503        C  0.27062033  0.41791482  0.12585424     0.05000
O504        O  0.32963339  0.39190417  0.10890197    -0.57600
H505        H  0.34298900  0.30523941  0.11277717     0.18000
O506        O  0.25862361  0.26171248  0.15450535    -0.64300
H507        H  0.24544344  0.34770079  0.14975458     0.16400
C508        C  0.24334074  0.42247050  0.11314203     0.28700
C509        C  0.22924672  0.46513656  0.11151964    -0.25200
C510        C  0.24166180  0.50397613  0.12276135    -0.24500
C511        C  0.26970000  0.49975974  0.13466485     0.40100
C512        C  0.28405510  0.45699545  0.13595902    -0.26900
O513        O  0.23028563  0.38521696  0.10222024    -0.58800
H514        H  0.20793209  0.46741894  0.10205356     0.15800
O515        O  0.28263603  0.53656030  0.14604841    -0.60300
H516        H  0.30504965  0.45394349  0.14579101     0.14200
H517        H  0.24289474  0.25308064  0.14261443     0.46100
H518        H  0.21357748  0.37583709  0.11292071     0.41400
H519        H  0.27396037  0.53651938  0.16242335     0.44900
H520        H  0.32286552  0.39162978  0.09192942     0.36400
C521        C  0.22496074  0.04169208  0.86568251    -0.27900
C522        C  0.22346838  0.07323155  0.88454845     0.01700
C523        C  0.23587008  0.06158973  0.90706391     0.29800
C524        C  0.25100339  0.01970722  0.91003414    -0.19700
C525        C  0.25380378  0.98934897  0.89068237    -0.29100
C526        C  0.23989997  0.00002029  0.86864248     0.43900
C527        C  0.21250670  0.12017714  0.87965026     0.05000
O528        O  0.23488074  0.09205707  0.92577895    -0.57600
H529        H  0.26219490  0.01235410  0.92688680     0.18000
O530        O  0.24286148  0.97141403  0.84927002    -0.64300
H531        H  0.21573067  0.05039610  0.84826411     0.16400
C532        C  0.22977646  0.15013553  0.86542089     0.28700
C533        C  0.22106678  0.19585242  0.86275445    -0.25200
C534        C  0.19508685  0.21259894  0.87411266    -0.24500
C535        C  0.17669422  0.18165879  0.88704694     0.40100
C536        C  0.18568306  0.13594922  0.88994931    -0.26900
O537        O  0.25603562  0.13555639  0.85498282    -0.58800
H538        H  0.23558346  0.21888983  0.85279847     0.15800
O539        O  0.15134152  0.19647162  0.89870470    -0.60300
H540        H  0.17215425  0.11308869  0.90083731     0.14200
H541        H  0.22806389  0.94624464  0.85201360     0.46100
H542        H  0.27183187  0.13995244  0.86741123     0.41400
H543        H  0.13484984  0.19380469  0.88671754     0.44900
H544        H  0.25305266  0.11156738  0.92391030     0.36400
C545        C  0.27295473  0.65927824  0.86476811    -0.27900
C546        C  0.28702069  0.62759173  0.87996983     0.01700
C547        C  0.31180868  0.64161812  0.89388092     0.29800
C548        C  0.32135190  0.68741930  0.89335456    -0.19700
C549        C  0.30615510  0.72012578  0.87925543    -0.29100
C550        C  0.28239707  0.70510335  0.86418916     0.43900
C551        C  0.27342446  0.58165356  0.88321317     0.05000
O552        O  0.32589084  0.61131367  0.90895355    -0.57600
H553        H  0.33960711  0.69777197  0.90512021     0.18000
O554        O  0.26712315  0.73521866  0.84976448    -0.64300
H555        H  0.25379717  0.64876340  0.85397304     0.16400
C556        C  0.24693665  0.57680714  0.89674887     0.28700
C557        C  0.23299212  0.53399360  0.89877284    -0.25200
C558        C  0.24483381  0.49522242  0.88715740    -0.24500
C559        C  0.27203930  0.49991045  0.87419436     0.40100
C560        C  0.28621166  0.54291117  0.87244104    -0.26900
O561        O  0.23449214  0.61391020  0.90808370    -0.58800
H562        H  0.21225862  0.53149372  0.90893912     0.15800
O563        O  0.28439843  0.46326921  0.86242551    -0.60300
H564        H  0.30670163  0.54631307  0.86204323     0.14200
H565        H  0.27869243  0.73609353  0.83456228     0.46100
H566        H  0.21989365  0.62679887  0.89643509     0.41400
H567        H  0.27514126  0.46358755  0.84620497     0.44900
H568        H  0.31433159  0.61260176  0.92414825     0.36400
C569        C  0.16262974  0.45017420  0.99300197    -0.27900
C570        C  0.14044626  0.48399825  0.99543858     0.01700
C571        C  0.12203734  0.49436931  0.97541006     0.29800
C572        C  0.12596811  0.47104232  0.95362008    -0.19700
C573        C  0.14763292  0.43642456  0.95152879    -0.29100
C574        C  0.16619452  0.42638003  0.97147120     0.43900
C575        C  0.13809512  0.50982935  0.01845618     0.05000
O576        O  0.10001280  0.52709080  0.97691703    -0.57600
H577        H  0.11166881  0.47943439  0.93847898     0.18000
O578        O  0.18852362  0.39406539  0.96998911    -0.64300
H579        H  0.17786632  0.44279652  0.00769450     0.16400
C580        C  0.13852930  0.48741376  0.04092373     0.28700
C581        C  0.13910619  0.51303681  0.06224737    -0.25200
C582        C  0.13951124  0.56111100  0.06167223    -0.24500
C583        C  0.13769287  0.58336809  0.03919249     0.40100
C584        C  0.13720654  0.55782080  0.01798602    -0.26900
O585        O  0.13804395  0.44047796  0.04221235    -0.58800
H586        H  0.14045399  0.49510910  0.07922535     0.15800
O587        O  0.13657486  0.63023879  0.03763864    -0.60300
H588        H  0.13725156  0.57591957  0.00103512     0.14200
H589        H  0.20573550  0.40992776  0.96221872     0.46100
H590        H  0.15814100  0.43155305  0.04860312     0.41400
H591        H  0.15732992  0.63999264  0.03343364     0.44900
H592        H  0.08265380  0.51156771  0.98463040     0.36400
C593        C  0.26102905  0.24203507  0.02775857    -0.27900
C594        C  0.27536718  0.22770882  0.00672742     0.01700
C595        C  0.29642375  0.19189977  0.00757758     0.29800
C596        C  0.30393961  0.17218763  0.02965354    -0.19700
C597        C  0.28979889  0.18686467  0.05082447    -0.29100
C598        C  0.26783208  0.22153244  0.04970111     0.43900
C599        C  0.26629852  0.24860160  0.98389038     0.05000
O600        O  0.31036172  0.17706390  0.98707025    -0.57600
H601        H  0.32096309  0.14565278  0.03028070     0.18000
O602        O  0.25431213  0.23766012  0.07012008    -0.64300
H603        H  0.24442209  0.26916799  0.02710503     0.16400
C604        C  0.24649891  0.22494275  0.96865498     0.28700
C605        C  0.23396980  0.24732145  0.94901915    -0.25200
C606        C  0.24074302  0.29353382  0.94431967    -0.24500
C607        C  0.26186460  0.31659296  0.95880574     0.40100
C608        C  0.27440712  0.29405362  0.97867097    -0.26900
O609        O  0.23823461  0.18056147  0.97344224    -0.58800
H610        H  0.21809614  0.22877312  0.93779757     0.15800
O611        O  0.26934784  0.36137859  0.95432123    -0.60300
H612        H  0.28963459  0.31245384  0.99047908     0.14200
H613        H  0.23536596  0.21977688  0.07161970     0.46100
H614        H  0.22058759  0.18288469  0.98427099     0.41400
H615        H  0.25800300  0.37954311  0.96628427     0.44900
H616        H  0.29889247  0.14952158  0.98198814     0.36400
C617        C  0.72338239  0.35997580  0.14985968    -0.27900
C618        C  0.70980506  0.38921710  0.13293753     0.01700
C619        C  0.68731683  0.37132224  0.11765759     0.29800
C620        C  0.67964323  0.32478631  0.11876376    -0.19700
C621        C  0.69438357  0.29521851  0.13478474    -0.29100
C622        C  0.71586968  0.31335011  0.15080450     0.43900
C623        C  0.72066991  0.43732829  0.13045362     0.05000
O624        O  0.67348076  0.39861609  0.10094775    -0.57600
H625        H  0.66337671  0.31123399  0.10606185     0.18000
O626        O  0.73046907  0.28545510  0.16682688    -0.64300
H627        H  0.74084866  0.37288417  0.16169735     0.16400
C628        C  0.72370872  0.46590340  0.15068896     0.28700
C629        C  0.73821248  0.50827866  0.14861006    -0.25200
C630        C  0.74943267  0.52339335  0.12645112    -0.24500
C631        C  0.74452696  0.49666056  0.10588652     0.40100
C632        C  0.73038338  0.45375558  0.10797637    -0.26900
O633        O  0.71390048  0.45183141  0.17281485    -0.58800
H634        H  0.74218273  0.52845383  0.16464983     0.15800
O635        O  0.75599640  0.51007503  0.08417723    -0.60300
H636        H  0.72855134  0.43220425  0.09222542     0.14200
H637        H  0.71656588  0.28262893  0.18066244     0.46100
H638        H  0.69186355  0.45753197  0.17278863     0.41400
H639        H  0.74006887  0.52937692  0.07686752     0.44900
H640        H  0.65801330  0.41595843  0.10997809     0.36400
C641        C  0.81607299  0.87089248  0.12694877    -0.27900
C642        C  0.78693328  0.88254964  0.13459248     0.01700
C643        C  0.76898804  0.84877203  0.14561010     0.29800
C644        C  0.77923885  0.80368154  0.14730310    -0.19700
C645        C  0.80735632  0.79076488  0.13784469    -0.29100
C646        C  0.82636142  0.82543040  0.12849281     0.43900
C647        C  0.77398789  0.92843687  0.12927882     0.05000
O648        O  0.74057873  0.85897298  0.15364899    -0.57600
H649        H  0.76413012  0.77821649  0.15476235     0.18000
O650        O  0.85424083  0.81500354  0.11946741    -0.64300
H651        H  0.83026075  0.89654727  0.11858500     0.16400
C652        C  0.78637103  0.96905399  0.13877350     0.28700
C653        C  0.77123938  0.01094890  0.13565490    -0.25200
C654        C  0.74378484  0.01304420  0.12295511    -0.24500
C655        C  0.73266226  0.97264980  0.11208730     0.40100
C656        C  0.74763726  0.93104258  0.11538086    -0.26900
O657        O  0.81197602  0.96762990  0.15257706    -0.58800
H658        H  0.78020156  0.04134829  0.14427331     0.15800
O659        O  0.70645478  0.97291175  0.09896854    -0.60300
H660        H  0.73814718  0.90023894  0.10752743     0.14200
H661        H  0.86802667  0.81582662  0.13348274     0.46100
H662        H  0.82845970  0.97780052  0.14182801     0.41400
H663        H  0.71237487  0.98365621  0.08276693     0.44900
H664        H  0.74356923  0.87193905  0.16993608     0.36400
C665        C  0.63316586  0.01977607  0.97252732    -0.27900
C666        C  0.63067089  0.99657275  0.99454239     0.01700
C667        C  0.62873265  0.94844100  0.99440141     0.29800
C668        C  0.63125473  0.92430155  0.97278341    -0.19700
C669        C  0.63576328  0.94731644  0.95089647    -0.29100
C670        C  0.63557730  0.99565511  0.95085583     0.43900
C671        C  0.63339681  0.02229902  0.01755333     0.05000
O672        O  0.62602783  0.92444929  0.01543179    -0.57600
H673        H  0.63095244  0.88721840  0.97333899     0.18000
O674        O  0.63989737  0.01977093  0.93004343    -0.64300
H675        H  0.63435411  0.05683677  0.97222341     0.16400
C676        C  0.65827552  0.05148403  0.02151416     0.28700
C677        C  0.66158638  0.07407355  0.04343033    -0.25200
C678        C  0.64078245  0.06761911  0.06209500    -0.24500
C679        C  0.61587485  0.03858981  0.05833451     0.40100
C680        C  0.61226666  0.01618478  0.03614388    -0.26900
O681        O  0.67992689  0.05746474  0.00424442    -0.58800
H682        H  0.68095744  0.09629681  0.04602150     0.15800
O683        O  0.59468700  0.03268249  0.07593394    -0.60300
H684        H  0.59288448  0.99413589  0.03340179     0.14200
H685        H  0.61940502  0.02549928  0.92368197     0.46100
H686        H  0.69442191  0.03205869  0.00671624     0.41400
H687        H  0.58010479  0.05794245  0.07359964     0.44900
H688        H  0.64706072  0.91903916  0.02093966     0.36400
C689        C  0.53288665  0.18131230  0.14391273    -0.27900
C690        C  0.51971900  0.14465576  0.15635079     0.01700
C691        C  0.53866232  0.11011368  0.16567136     0.29800
C692        C  0.56985591  0.11145613  0.16135462    -0.19700
C693        C  0.58275047  0.14692186  0.14769955    -0.29100
C694        C  0.56393137  0.18280800  0.13966493     0.43900
C695        C  0.48621997  0.13992737  0.15631430     0.05000
O696        O  0.52676471  0.07377084  0.17806744    -0.57600
H697        H  0.58371033  0.08343180  0.16767779     0.18000
O698        O  0.57531000  0.21853174  0.12649848    -0.64300
H699        H  0.51884535  0.20776461  0.13617103     0.16400
C700        C  0.46705560  0.17692567  0.16201987     0.28700
C701        C  0.43585221  0.17373586  0.15757699    -0.25200
C702        C  0.42330152  0.13370464  0.14775392    -0.24500
C703        C  0.44238020  0.09603396  0.14318134     0.40100
C704        C  0.47337518  0.09949487  0.14731458    -0.26900
O705        O  0.47866296  0.21612423  0.17206111    -0.58800
H706        H  0.42156279  0.20284102  0.16142628     0.15800
O707        O  0.43143358  0.05692325  0.13260421    -0.60300
H708        H  0.48764610  0.07111260  0.14216196     0.14200
H709        H  0.58290124  0.24083278  0.13850697     0.46100
H710        H  0.47648432  0.24017250  0.15963687     0.41400
H711        H  0.42743516  0.03554986  0.14604102     0.44900
H712        H  0.52474449  0.08469926  0.19481245     0.36400
C713        C  0.84706100  0.52045374  0.97922498    -0.27900
C714        C  0.86427361  0.49881275  0.99711220     0.01700
C715        C  0.88072266  0.45936208  0.99089568     0.29800
C716        C  0.87943947  0.44191260  0.96739856    -0.19700
C717        C  0.86192585  0.46320526  0.94945059    -0.29100
C718        C  0.84583770  0.50320106  0.95568596     0.43900
C719        C  0.86462087  0.51753993  0.02213750     0.05000
O720        O  0.89802663  0.43734443  0.00770831    -0.57600
H721        H  0.89187332  0.41099135  0.96336784     0.18000
O722        O  0.82761732  0.52460084  0.93929170    -0.64300
H723        H  0.83388309  0.55045108  0.98365658     0.16400
C724        C  0.87285836  0.56335797  0.02662128     0.28700
C725        C  0.87204988  0.58098634  0.05004420    -0.25200
C726        C  0.86231787  0.55411292  0.06957159    -0.24500
C727        C  0.85414129  0.50807604  0.06507156     0.40100
C728        C  0.85573439  0.49007022  0.04164033    -0.26900
O729        O  0.88225367  0.59107014  0.00820987    -0.58800
H730        H  0.87813200  0.61658451  0.05270757     0.15800
O731        O  0.84451475  0.48030214  0.08336203    -0.60300
H732        H  0.84910774  0.45480899  0.03858154     0.14200
H733        H  0.83985946  0.55029472  0.93291025     0.46100
H734        H  0.86509782  0.61195796  0.00498114     0.41400
H735        H  0.82218733  0.48105834  0.08253000     0.44900
H736        H  0.91783041  0.45294144  0.00723599     0.36400
C737        C  0.72969196  0.66033941  0.86364261    -0.27900
C738        C  0.71232575  0.62877072  0.87675902     0.01700
C739        C  0.68626409  0.64426508  0.88859151     0.29800
C740        C  0.67872981  0.69084258  0.88815892    -0.19700
C741        C  0.69709606  0.72280137  0.87622596    -0.29100
C742        C  0.72235882  0.70696993  0.86339516     0.43900
C743        C  0.72300355  0.58076156  0.87933124     0.05000
O744        O  0.66862471  0.61442505  0.90139049    -0.57600
H745        H  0.65943619  0.70231380  0.89839341     0.18000
O746        O  0.74026286  0.73691068  0.85083675    -0.64300
H747        H  0.74991267  0.64923477  0.85449407     0.16400
C748        C  0.73113015  0.55486357  0.85906553     0.28700
C749        C  0.74555627  0.51270342  0.86199197    -0.25200
C750        C  0.75213816  0.49562532  0.88493704    -0.24500
C751        C  0.74234363  0.51978638  0.90521314     0.40100
C752        C  0.72784529  0.56216054  0.90234277    -0.26900
O753        O  0.72531083  0.57077930  0.83635629    -0.58800
H754        H  0.75304950  0.49426197  0.84621306     0.15800
O755        O  0.74845468  0.50370715  0.92780257    -0.60300
H756        H  0.72194507  0.58170529  0.91815692     0.14200
H757        H  0.75828191  0.74198355  0.86108877     0.46100
H758        H  0.74524767  0.57851898  0.82943416     0.41400
H759        H  0.76729229  0.51958387  0.93281099     0.44900
H760        H  0.65377214  0.60227994  0.88965862     0.36400
C761        C  0.74537843  0.08664282  0.90408699    -0.27900
C762        C  0.77208674  0.09070107  0.89079391     0.01700
C763        C  0.78496954  0.05104238  0.88081573     0.29800
C764        C  0.77004142  0.00874538  0.88278902    -0.19700
C765        C  0.74207092  0.00533224  0.89453506    -0.29100
C766        C  0.73042022  0.04456328  0.90604091     0.43900
C767        C  0.78474831  0.13697940  0.88597595     0.05000
O768        O  0.81132800  0.05363680  0.86807169    -0.57600
H769        H  0.77953496  0.97914807  0.87388552     0.18000
O770        O  0.70378466  0.04272940  0.91845312    -0.64300
H771        H  0.73555507  0.11665943  0.91237277     0.16400
C772        C  0.76702806  0.17031409  0.87444697     0.28700
C773        C  0.77800002  0.21494275  0.87154540    -0.25200
C774        C  0.80651220  0.22770722  0.88043682    -0.24500
C775        C  0.82501628  0.19347419  0.89066887     0.40100
C776        C  0.81406899  0.14856575  0.89336814    -0.26900
O777        O  0.73881038  0.15949818  0.86597912    -0.58800
H778        H  0.76329177  0.24022085  0.86349281     0.15800
O779        O  0.85332675  0.20382247  0.89902806    -0.60300
H780        H  0.82810869  0.12314176  0.90203042     0.14200
H781        H  0.70913791  0.03034661  0.93446780     0.46100
H782        H  0.72456531  0.17267346  0.87775732     0.41400
H783        H  0.86668527  0.20118555  0.88487690     0.44900
H784        H  0.80525618  0.06285966  0.85164038     0.36400
C785        C  0.97305524  0.41051509  0.85940412    -0.27900
C786        C  0.98612942  0.36710226  0.85677869     0.01700
C787        C  0.96707299  0.32831118  0.85630505     0.29800
C788        C  0.93609259  0.33290634  0.86070268    -0.19700
C789        C  0.92331575  0.37610188  0.86509133    -0.29100
C790        C  0.94202954  0.41528742  0.86340144     0.43900
C791        C  0.01956336  0.36227917  0.85845860     0.05000
O792        O  0.97873665  0.28544343  0.85263423    -0.57600
H793        H  0.92220091  0.30236011  0.86141970     0.18000
O794        O  0.93067341  0.45838975  0.86699316    -0.64300
H795        H  0.98717827  0.44080876  0.85999717     0.16400
C796        C  0.03954890  0.38927338  0.84474560     0.28700
C797        C  0.07076468  0.38809082  0.84942632    -0.25200
C798        C  0.08259487  0.36049122  0.86787805    -0.24500
C799        C  0.06249735  0.33192528  0.88075214     0.40100
C800        C  0.03153863  0.33329442  0.87609241    -0.26900
O801        O  0.02879004  0.41653218  0.82662070    -0.58800
H802        H  0.08558663  0.40991798  0.83903980     0.15800
O803        O  0.07251126  0.30393649  0.89882358    -0.60300
H804        H  0.01662661  0.31281662  0.88713952     0.14200
H805        H  0.93323170  0.46439989  0.88437442     0.46100
H806        H  0.03127138  0.44845245  0.83241812     0.41400
H807        H  0.07730387  0.27443718  0.89090838     0.44900
H808        H  0.98050840  0.28239114  0.83497360     0.36400
C809        C  0.78364218  0.30054545  0.99835233    -0.27900
C810        C  0.76581699  0.26119221  0.99503261     0.01700
C811        C  0.75728891  0.24810948  0.97166542     0.29800
C812        C  0.76597892  0.27473399  0.95213652    -0.19700
C813        C  0.78401374  0.31376653  0.95541692    -0.29100
C814        C  0.79302691  0.32655982  0.97868160     0.43900
C815        C  0.75422595  0.23606224  0.01605671     0.05000
O816        O  0.74077631  0.20901074  0.96770658    -0.57600
H817        H  0.75968231  0.26366417  0.93424382     0.18000
O818        O  0.81104651  0.36419370  0.98235523    -0.64300
H819        H  0.78996968  0.31144410  0.01624824     0.16400
C820        C  0.77335977  0.22156290  0.03477894     0.28700
C821        C  0.76102988  0.20191433  0.05547271    -0.25200
C822        C  0.72972721  0.19659986  0.05764611    -0.24500
C823        C  0.71084255  0.20873524  0.03830231     0.40100
C824        C  0.72312902  0.22846309  0.01782588    -0.26900
O825        O  0.80397559  0.22749200  0.03325483    -0.58800
H826        H  0.77580047  0.19269251  0.07019191     0.15800
O827        O  0.68026074  0.20150927  0.03926069    -0.60300
H828        H  0.70808629  0.23934451  0.00359799     0.14200
H829        H  0.79707330  0.39063763  0.98274286     0.46100
H830        H  0.81169532  0.19846782  0.02637864     0.41400
H831        H  0.67137304  0.23183446  0.04277359     0.44900
H832        H  0.75578145  0.18388179  0.96722408     0.36400
C833        C  0.78243374  0.59765975  0.24493451    -0.27900
C834        C  0.75298402  0.61498117  0.24733293     0.01700
C835        C  0.73874067  0.63409357  0.22728959     0.29800
C836        C  0.75373937  0.63584879  0.20531581    -0.19700
C837        C  0.78315112  0.61807153  0.20244455    -0.29100
C838        C  0.79745879  0.59876234  0.22265692     0.43900
C839        C  0.73800547  0.61643598  0.27110317     0.05000
O840        O  0.71052553  0.65288260  0.22925276    -0.57600
H841        H  0.74187913  0.65126624  0.19037330     0.18000
O842        O  0.82570576  0.58019273  0.22084333    -0.64300
H843        H  0.79376328  0.58320417  0.26039753     0.16400
C844        C  0.71339318  0.58774886  0.27680303     0.28700
C845        C  0.70012543  0.58981690  0.29972537    -0.25200
C846        C  0.71092598  0.62081751  0.31702533    -0.24500
C847        C  0.73445390  0.65129779  0.31057113     0.40100
C848        C  0.74776684  0.64874344  0.28790756    -0.26900
O849        O  0.70304730  0.55633494  0.26043820    -0.58800
H850        H  0.68218301  0.56610869  0.30422483     0.15800
O851        O  0.74436194  0.68434728  0.32622689    -0.60300
H852        H  0.76590766  0.67215533  0.28343225     0.14200
H853        H  0.83974612  0.60531013  0.22526615     0.46100
H854        H  0.68448641  0.56999020  0.25357462     0.41400
H855        H  0.76390781  0.67269129  0.33271938     0.44900
H856        H  0.69666788  0.63043559  0.22160486     0.36400
C857        C  0.79003615  0.93561858  0.74221236    -0.27900
C858        C  0.76250774  0.91304453  0.74664233     0.01700
C859        C  0.74834046  0.88927657  0.72785682     0.29800
C860        C  0.76184893  0.88708045  0.70534241    -0.19700
C861        C  0.78981257  0.90833127  0.70072814    -0.29100
C862        C  0.80364873  0.93360891  0.71935386     0.43900
C863        C  0.74914058  0.91091360  0.77102925     0.05000
O864        O  0.72080960  0.86868880  0.73129838    -0.57600
H865        H  0.75001750  0.86857070  0.69133363     0.18000
O866        O  0.83081729  0.95497374  0.71574124    -0.64300
H867        H  0.80126752  0.95390531  0.75660171     0.16400
C868        C  0.74617861  0.86827517  0.78251104     0.28700
C869        C  0.73055795  0.86474705  0.80410486    -0.25200
C870        C  0.71819313  0.90353148  0.81527993    -0.24500
C871        C  0.72162608  0.94660938  0.80407298     0.40100
C872        C  0.73700435  0.95003741  0.78203387    -0.26900
O873        O  0.75860202  0.82961017  0.77270557    -0.58800
H874        H  0.72876468  0.83134977  0.81246684     0.15800
O875        O  0.71156741  0.98569562  0.81505387    -0.60300
H876        H  0.73923731  0.98313351  0.77343881     0.14200
H877        H  0.82566167  0.98655480  0.71068013     0.46100
H878        H  0.77958507  0.82879643  0.77886308     0.41400
H879        H  0.69195284  0.99255132  0.80731613     0.44900
H880        H  0.72491543  0.83533950  0.73174717     0.36400
C881        C  0.75953429  0.72680593  0.48583688    -0.27900
C882        C  0.73948492  0.74727163  0.50198145     0.01700
C883        C  0.70830144  0.74277108  0.49844788     0.29800
C884        C  0.69745442  0.71863850  0.47862345    -0.19700
C885        C  0.71745349  0.69872868  0.46209665    -0.29100
C886        C  0.74878539  0.70231516  0.46611432     0.43900
C887        C  0.75151023  0.77078081  0.52324138     0.05000
O888        O  0.68829545  0.76196266  0.51422575    -0.57600
H889        H  0.67329557  0.71664969  0.47587471     0.18000
O890        O  0.76913941  0.68282761  0.45072118    -0.64300
H891        H  0.78365847  0.72993161  0.48854879     0.16400
C892        C  0.76962054  0.74648909  0.53945418     0.28700
C893        C  0.78186104  0.76885995  0.55916967    -0.25200
C894        C  0.77646258  0.81560218  0.56303684    -0.24500
C895        C  0.75780881  0.83994853  0.54716470     0.40100
C896        C  0.74534548  0.81735734  0.52728842    -0.26900
O897        O  0.77470273  0.70048483  0.53649674    -0.58800
H898        H  0.79573570  0.74943330  0.57153813     0.15800
O899        O  0.75232402  0.88569125  0.55053855    -0.60300
H900        H  0.73140234  0.83626860  0.51478256     0.14200
H901        H  0.77200540  0.65116691  0.45672498     0.46100
H902        H  0.79568746  0.69811330  0.53047774     0.41400
H903        H  0.76947547  0.90175825  0.54277781     0.44900
H904        H  0.68446385  0.73795996  0.52641118     0.36400
C905        C  0.20906857  0.58096010  0.24164592    -0.27900
C906        C  0.23895506  0.59481889  0.24616061     0.01700
C907        C  0.25631628  0.61301295  0.22746750     0.29800
C908        C  0.24398081  0.61738982  0.20463088    -0.19700
C909        C  0.21406760  0.60415706  0.19986570    -0.29100
C910        C  0.19657362  0.58534809  0.21851404     0.43900
C911        C  0.25132005  0.59656656  0.27072272     0.05000
O912        O  0.28538027  0.62733948  0.23152392    -0.57600
H913        H  0.25801352  0.63141432  0.19052095     0.18000
O914        O  0.16721980  0.57249110  0.21453956    -0.64300
H915        H  0.19529194  0.56791201  0.25614859     0.16400
C916        C  0.25022308  0.63806323  0.28328661     0.28700
C917        C  0.26627897  0.64317744  0.30459991    -0.25200
C918        C  0.28322972  0.60684254  0.31438155    -0.24500
C919        C  0.28391793  0.56478319  0.30190256     0.40100
C920        C  0.26830553  0.56009784  0.28001619    -0.26900
O921        O  0.23435884  0.67456103  0.27432806    -0.58800
H922        H  0.26500129  0.67594715  0.31365356     0.15800
O923        O  0.29968044  0.52820809  0.31080291    -0.60300
H924        H  0.26976927  0.52825084  0.27012624     0.14200
H925        H  0.15533662  0.60117316  0.21584510     0.46100
H926        H  0.21359602  0.67067758  0.28054781     0.41400
H927        H  0.28498652  0.51095918  0.32069825     0.44900
H928        H  0.28377672  0.66031682  0.23556665     0.36400
C929        C  0.53394739  0.61881362  0.34937637    -0.27900
C930        C  0.51539819  0.64771292  0.36300858     0.01700
C931        C  0.52894309  0.67809244  0.37955159     0.29800
C932        C  0.56037752  0.67924727  0.38217471    -0.19700
C933        C  0.57887703  0.64961308  0.36898278    -0.29100
C934        C  0.56537556  0.61944809  0.35232080     0.43900
C935        C  0.48195325  0.64371531  0.36125537     0.05000
O936        O  0.51150512  0.70366588  0.39480088    -0.57600
H937        H  0.57013164  0.70139268  0.39574669     0.18000
O938        O  0.58258288  0.58929232  0.33942901    -0.64300
H939        H  0.52396560  0.59496732  0.33674070     0.16400
C940        C  0.46367951  0.68279086  0.35836231     0.28700
C941        C  0.43237124  0.67937242  0.36103853    -0.25200
C942        C  0.41861779  0.63692960  0.36546679    -0.24500
C943        C  0.43652384  0.59721672  0.36624227     0.40100
C944        C  0.46797574  0.60078692  0.36420330    -0.26900
O945        O  0.47626913  0.72477866  0.35368721    -0.58800
H946        H  0.41882564  0.71017312  0.36033706     0.15800
O947        O  0.42372991  0.55523935  0.37068667    -0.60300
H948        H  0.48155934  0.57025240  0.36624967     0.14200
H949        H  0.58726713  0.60540669  0.32419240     0.46100
H950        H  0.48045203  0.72471015  0.33620840     0.41400
H951        H  0.42303377  0.55257199  0.38841148     0.44900
H952        H  0.51535172  0.73611714  0.39038177     0.36400
C953        C  0.21621894  0.91675932  0.74112539    -0.27900
C954        C  0.24621412  0.90255135  0.74451252     0.01700
C955        C  0.26253664  0.88619466  0.72481127     0.29800
C956        C  0.24902398  0.88409652  0.70217433    -0.19700
C957        C  0.21907869  0.89868812  0.69838940    -0.29100
C958        C  0.20266220  0.91520891  0.71825890     0.43900
C959        C  0.25978895  0.90113342  0.76885280     0.05000
O960        O  0.29135979  0.87015402  0.72776262    -0.57600
H961        H  0.26237933  0.87096646  0.68747308     0.18000
O962        O  0.17363396  0.93042063  0.71559432    -0.64300
H963        H  0.20329776  0.92902513  0.75627884     0.16400
C964        C  0.28420331  0.92961511  0.77535281     0.28700
C965        C  0.29754303  0.92550883  0.79817818    -0.25200
C966        C  0.28697488  0.89285979  0.81467523    -0.24500
C967        C  0.26283036  0.86385791  0.80779675     0.40100
C968        C  0.24950162  0.86826494  0.78515000    -0.26900
O969        O  0.29441629  0.96255569  0.75980540    -0.58800
H970        H  0.31565165  0.94861987  0.80316684     0.15800
O971        O  0.25262997  0.83002274  0.82282451    -0.60300
H972        H  0.23127130  0.84536720  0.78013784     0.14200
H973        H  0.16078719  0.90288704  0.71783117     0.46100
H974        H  0.31408610  0.95117786  0.75389815     0.41400
H975        H  0.23369541  0.84216150  0.82991937     0.44900
H976        H  0.30462958  0.89383690  0.72054690     0.36400
C977        C  0.97414440  0.83169489  0.64625204    -0.27900
C978        C  0.98799478  0.86448642  0.66098259     0.01700
C979        C  0.96966914  0.89707228  0.67267498     0.29800
C980        C  0.93860088  0.89905478  0.66775753    -0.19700
C981        C  0.92523857  0.86850169  0.65137738    -0.29100
C982        C  0.94321515  0.83320841  0.64153394     0.43900
C983        C  0.02152888  0.86853118  0.66068688     0.05000
O984        O  0.98214882  0.92861346  0.68800717    -0.57600
H985        H  0.92531160  0.92600301  0.67583907     0.18000
O986        O  0.93103552  0.80065352  0.62658393    -0.64300
H987        H  0.98759519  0.80647239  0.63693198     0.16400
C988        C  0.04048477  0.82992075  0.66273260     0.28700
C989        C  0.07143677  0.83376031  0.65757899    -0.25200
C990        C  0.08400184  0.87585172  0.65052816    -0.24500
C991        C  0.06524779  0.91487967  0.64983522     0.40100
C992        C  0.03445740  0.91087805  0.65468392    -0.26900
O993        O  0.02891455  0.78840816  0.66977953    -0.58800
H994        H  0.08547722  0.80351837  0.65855984     0.15800
O995        O  0.07614699  0.95650698  0.64238439    -0.60300
H996        H  0.02032381  0.94074790  0.65233570     0.14200
H997        H  0.93646954  0.81046700  0.61013776     0.46100
H998        H  0.03074200  0.76804099  0.65565879     0.41400
H999        H  0.08128718  0.97326101  0.65734969     0.44900
H1000       H  0.98333960  0.91284624  0.70374904     0.36400
C1001       C  0.25747137  0.78603742  0.46779337    -0.27900
C1002       C  0.24330720  0.76177865  0.48619634     0.01700
C1003       C  0.24016748  0.71390054  0.48460692     0.29800
C1004       C  0.25206069  0.69047405  0.46488145    -0.19700
C1005       C  0.26769761  0.71455628  0.44710419    -0.29100
C1006       C  0.26967400  0.76275057  0.44829743     0.43900
C1007       C  0.23438885  0.78626993  0.50799923     0.05000
O1008       O  0.22605835  0.68983354  0.50249233    -0.57600
H1009       H  0.25039602  0.65348242  0.46407165     0.18000
O1010       O  0.28420804  0.78726755  0.43077285    -0.64300
H1011       H  0.25994077  0.82291004  0.46896963     0.16400
C1012       C  0.25364234  0.78667816  0.52799508     0.28700
C1013       C  0.24446272  0.80779232  0.54916685    -0.25200
C1014       C  0.21605802  0.82880663  0.55071493    -0.24500
C1015       C  0.19745525  0.83043480  0.53008363     0.40100
C1016       C  0.20674317  0.80910998  0.50890470    -0.26900
O1017       O  0.28104612  0.76506408  0.52723317    -0.58800
H1018       H  0.25919143  0.80606229  0.56466673     0.15800
O1019       O  0.16976253  0.85122922  0.53057930    -0.60300
H1020       H  0.19208828  0.80948157  0.49332868     0.14200
H1021       H  0.26854067  0.79369133  0.41847212     0.46100
H1022       H  0.29518828  0.78798197  0.52049137     0.41400
H1023       H  0.17394508  0.88432248  0.52822013     0.44900
H1024       H  0.24249941  0.67943387  0.51327922     0.36400
C1025       C  0.25641402  0.13334663  0.22750084    -0.27900
C1026       C  0.26059719  0.09369241  0.24127921     0.01700
C1027       C  0.27990571  0.05915264  0.23251666     0.29800
C1028       C  0.29420569  0.06438411  0.21014690    -0.19700
C1029       C  0.28945707  0.10371568  0.19619336    -0.29100
C1030       C  0.27051233  0.13846500  0.20518257     0.43900
C1031       C  0.24588619  0.09037777  0.26527620     0.05000
O1032       O  0.28354908  0.01915206  0.24508660    -0.57600
H1033       H  0.30799870  0.03680071  0.20326446     0.18000
O1034       O  0.26609686  0.17808619  0.19243283    -0.64300
H1035       H  0.24222308  0.16067111  0.23415463     0.16400
C1036       C  0.26351702  0.08721306  0.28618599     0.28700
C1037       C  0.24988615  0.08924721  0.30875421    -0.25200
C1038       C  0.21848649  0.09484987  0.31127642    -0.24500
C1039       C  0.20059379  0.09635746  0.29038157     0.40100
C1040       C  0.21434056  0.09446691  0.26760034    -0.26900
O1041       O  0.29432441  0.08408649  0.28482132    -0.58800
H1042       H  0.26422754  0.08751460  0.32449200     0.15800
O1043       O  0.16993464  0.10129446  0.29193432    -0.60300
H1044       H  0.20040918  0.09711610  0.25167944     0.14200
H1045       H  0.24616439  0.17438173  0.18458698     0.46100
H1046       H  0.30162807  0.11613517  0.28378472     0.41400
H1047       H  0.16651843  0.13480446  0.29312177     0.44900
H1048       H  0.30491147  0.01905981  0.25039774     0.36400
C1049       C  0.14792789  0.02759755  0.53777610    -0.27900
C1050       C  0.13071345  0.00481580  0.52024013     0.01700
C1051       C  0.11486643  0.96496582  0.52683591     0.29800
C1052       C  0.11779546  0.94699903  0.55009757    -0.19700
C1053       C  0.13646444  0.96817027  0.56738759    -0.29100
C1054       C  0.15097908  0.00964005  0.56107317     0.43900
C1055       C  0.13139761  0.02089552  0.49479308     0.05000
O1056       O  0.09707731  0.94256205  0.51043048    -0.57600
H1057       H  0.10618319  0.91532148  0.55428366     0.18000
O1058       O  0.16917649  0.03213635  0.57715339    -0.64300
H1059       H  0.16023931  0.05839542  0.53306762     0.16400
C1060       C  0.12121983  0.06476278  0.48831084     0.28700
C1061       C  0.12428905  0.08029663  0.46456916    -0.25200
C1062       C  0.13822527  0.05321654  0.44680343    -0.24500
C1063       C  0.14799443  0.00888325  0.45335282     0.40100
C1064       C  0.14415557  0.99296408  0.47700034    -0.26900
O1065       O  0.10798191  0.09261373  0.50504515    -0.58800
H1066       H  0.11660475  0.11452986  0.46033010     0.15800
O1067       O  0.16197851  0.98110063  0.43701524    -0.60300
H1068       H  0.15232774  0.95919236  0.48169980     0.14200
H1069       H  0.18957625  0.01968770  0.57445113     0.46100
H1070       H  0.12385210  0.11484158  0.50977468     0.41400
H1071       H  0.18364741  0.98212094  0.44144288     0.44900
H1072       H  0.07650271  0.95464508  0.51302110     0.36400
C1073       C  0.29516340  0.96953406  0.37739121    -0.27900
C1074       C  0.28152379  0.92836395  0.38473729     0.01700
C1075       C  0.25474632  0.93002917  0.39820582     0.29800
C1076       C  0.24028921  0.97178460  0.40188098    -0.19700
C1077       C  0.25229689  0.01246651  0.39265099    -0.29100
C1078       C  0.28071327  0.01166568  0.38141010     0.43900
C1079       C  0.29362805  0.88334218  0.37720643     0.05000
O1080       O  0.24218916  0.89065168  0.40729334    -0.57600
H1081       H  0.21848426  0.97194531  0.41052167     0.18000
O1082       O  0.29293289  0.05098330  0.37208686    -0.64300
H1083       H  0.31602056  0.96875719  0.36732666     0.16400
C1084       C  0.27522682  0.85271842  0.36418191     0.28700
C1085       C  0.28336822  0.80674593  0.36216566    -0.25200
C1086       C  0.31011520  0.79058072  0.37261026    -0.24500
C1087       C  0.33035940  0.82250416  0.38295937     0.40100
C1088       C  0.32190207  0.86858761  0.38532904    -0.26900
O1089       O  0.24808479  0.86667157  0.35491767    -0.58800
H1090       H  0.26771700  0.78307118  0.35376757     0.15800
O1091       O  0.35686566  0.80833168  0.39320142    -0.60300
H1092       H  0.33647228  0.89198669  0.39504827     0.14200
H1093       H  0.30424580  0.06508174  0.38550221     0.46100
H1094       H  0.25307765  0.88171247  0.33949549     0.41400
H1095       H  0.37227500  0.81216179  0.38048499     0.44900
H1096       H  0.22328734  0.88572477  0.39812360     0.36400
C1097       C  0.25195427  0.42997618  0.40253790    -0.27900
C1098       C  0.23049197  0.42221161  0.38443040     0.01700
C1099       C  0.22072435  0.45963357  0.37046358     0.29800
C1100       C  0.23367004  0.50328121  0.37383621    -0.19700
C1101       C  0.25664282  0.51023024  0.39093454    -0.29100
C1102       C  0.26500590  0.47324400  0.40581141     0.43900
C1103       C  0.22008005  0.37442620  0.37955103     0.05000
O1104       O  0.19969021  0.45345799  0.35267810    -0.57600
H1105       H  0.22711832  0.53096203  0.36200276     0.18000
O1106       O  0.28699018  0.47841185  0.42295889    -0.64300
H1107       H  0.25930662  0.40189350  0.41379729     0.16400
C1108       C  0.24114239  0.33972933  0.37442226     0.28700
C1109       C  0.23163326  0.29424673  0.37160032    -0.25200
C1110       C  0.20124577  0.28185831  0.37458310    -0.24500
C1111       C  0.17993447  0.31679131  0.37886478     0.40100
C1112       C  0.18938555  0.36265956  0.38109671    -0.26900
O1113       O  0.27123435  0.34997929  0.37228197    -0.58800
H1114       H  0.24853092  0.26815616  0.36858105     0.15800
O1115       O  0.15000383  0.30635516  0.38182088    -0.60300
H1116       H  0.17285685  0.38883113  0.38503057     0.14200
H1117       H  0.27694145  0.49396239  0.43657661     0.46100
H1118       H  0.28072942  0.33864096  0.38724810     0.41400
H1119       H  0.14157816  0.30479146  0.36536517     0.44900
H1120       H  0.21129612  0.44315374  0.33848628     0.36400
C1121       C  0.22899925  0.36385801  0.77267050    -0.27900
C1122       C  0.24048530  0.40638824  0.76529628     0.01700
C1123       C  0.23656204  0.44480655  0.78024893     0.29800
C1124       C  0.22181752  0.44002375  0.80244592    -0.19700
C1125       C  0.21150399  0.39694245  0.81020720    -0.29100
C1126       C  0.21505995  0.35880848  0.79500006     0.43900
C1127       C  0.25541970  0.40957411  0.74150932     0.05000
O1128       O  0.24665852  0.48711304  0.77316200    -0.57600
H1129       H  0.21982230  0.46954203  0.81411313     0.18000
O1130       O  0.20493799  0.31634015  0.80186045    -0.64300
H1131       H  0.23150863  0.33408856  0.76124437     0.16400
C1132       C  0.28642956  0.41961959  0.73903820     0.28700
C1133       C  0.30027698  0.41725204  0.71632270    -0.25200
C1134       C  0.28359886  0.40393151  0.69601012    -0.24500
C1135       C  0.25234583  0.39526887  0.69860994     0.40100
C1136       C  0.23867019  0.39816379  0.72108739    -0.26900
O1137       O  0.30356374  0.43026556  0.75877344    -0.58800
H1138       H  0.32419011  0.42422510  0.71474008     0.15800
O1139       O  0.23465097  0.38501774  0.67909255    -0.60300
H1140       H  0.21480090  0.39067904  0.72265261     0.14200
H1141       H  0.22308599  0.29987847  0.80765634     0.46100
H1142       H  0.31007769  0.40037920  0.76541882     0.41400
H1143       H  0.23184919  0.35126525  0.67956968     0.44900
H1144       H  0.26529908  0.49266791  0.78260434     0.36400
C1145       C  0.27738393  0.16080851  0.64648850    -0.27900
C1146       C  0.29580869  0.12951422  0.63425118     0.01700
C1147       C  0.32272562  0.14530506  0.62373695     0.29800
C1148       C  0.33018007  0.19200599  0.62474018    -0.19700
C1149       C  0.31089807  0.22357388  0.63597698    -0.29100
C1150       C  0.28469007  0.20736238  0.64738717     0.43900
C1151       C  0.28532682  0.08139428  0.63161540     0.05000
O1152       O  0.34133009  0.11569008  0.61177052    -0.57600
H1153       H  0.35021792  0.20386773  0.61552533     0.18000
O1154       O  0.26583275  0.23689740  0.65920206    -0.64300
H1155       H  0.25644604  0.14948213  0.65453381     0.16400
C1156       C  0.27551768  0.05673532  0.65182744     0.28700
C1157       C  0.25980770  0.01563211  0.64884655    -0.25200
C1158       C  0.25359002  0.99827750  0.62588882    -0.24500
C1159       C  0.26548336  0.02062511  0.60570264     0.40100
C1160       C  0.28129517  0.06212070  0.60864413    -0.26900
O1161       O  0.28076385  0.07311375  0.67455477    -0.58800
H1162       H  0.25119110  0.99819514  0.66458973     0.15800
O1163       O  0.26023199  0.00373403  0.58311452    -0.60300
H1164       H  0.28867625  0.08065791  0.59287898     0.14200
H1165       H  0.24865291  0.24203989  0.64810886     0.46100
H1166       H  0.26073569  0.08181169  0.68093593     0.41400
H1167       H  0.24454320  0.02376993  0.57613275     0.44900
H1168       H  0.35679715  0.10652884  0.62370742     0.36400
C1169       C  0.22065300  0.55114443  0.62208376    -0.27900
C1170       C  0.23663801  0.59185722  0.61764482     0.01700
C1171       C  0.26706116  0.58910161  0.61066518     0.29800
C1172       C  0.28163810  0.54672163  0.60996471    -0.19700
C1173       C  0.26639542  0.50603448  0.61606425    -0.29100
C1174       C  0.23527125  0.50844995  0.62138019     0.43900
C1175       C  0.22250844  0.63731879  0.62195716     0.05000
O1176       O  0.28309597  0.62798384  0.60527957    -0.57600
H1177       H  0.30537255  0.54603098  0.60541107     0.18000
O1178       O  0.21917127  0.46971805  0.62691124    -0.64300
H1179       H  0.19715024  0.55260801  0.62726106     0.16400
C1180       C  0.19704781  0.65205433  0.60902252     0.28700
C1181       C  0.18646145  0.69709946  0.61177404    -0.25200
C1182       C  0.20082670  0.72811554  0.62751245    -0.24500
C1183       C  0.22507572  0.71196768  0.64164469     0.40100
C1184       C  0.23572727  0.66722127  0.63868023    -0.26900
O1185       O  0.18379610  0.62389899  0.59234353    -0.58800
H1186       H  0.16794952  0.70840875  0.60056161     0.15800
O1187       O  0.23960919  0.74017524  0.65761410    -0.60300
H1188       H  0.25500375  0.65610106  0.64911886     0.14200
H1189       H  0.22028091  0.46710222  0.64462130     0.46100
H1190       H  0.16591872  0.61075764  0.60048377     0.41400
H1191       H  0.22796125  0.73758562  0.67270750     0.44900
H1192       H  0.28007745  0.63269531  0.58781817     0.36400
C1193       C  0.35299078  0.56222239  0.49580095    -0.27900
C1194       C  0.37372645  0.52614503  0.49709684     0.01700
C1195       C  0.38900012  0.51294147  0.47594526     0.29800
C1196       C  0.38281552  0.53487125  0.45404275    -0.19700
C1197       C  0.36204003  0.57095274  0.45288320    -0.29100
C1198       C  0.34734096  0.58481117  0.47415238     0.43900
C1199       C  0.37649321  0.49964886  0.51991158     0.05000
O1200       O  0.40981791  0.47832317  0.47640942    -0.57600
H1201       H  0.39447705  0.52391733  0.43798993     0.18000
O1202       O  0.32587616  0.61857297  0.47373789    -0.64300
H1203       H  0.34015047  0.57197216  0.51148008     0.16400
C1204       C  0.37935637  0.52130805  0.54248778     0.28700
C1205       C  0.37738326  0.49546331  0.56376112    -0.25200
C1206       C  0.37242607  0.44790282  0.56299626    -0.24500
C1207       C  0.37124302  0.42619349  0.54024768     0.40100
C1208       C  0.37315773  0.45197679  0.51920250    -0.26900
O1209       O  0.38428022  0.56765741  0.54389807    -0.58800
H1210       H  0.37863571  0.51302170  0.58085315     0.15800
O1211       O  0.36740988  0.37970438  0.53816891    -0.60300
H1212       H  0.37050174  0.43454790  0.50217130     0.14200
H1213       H  0.33643405  0.64671427  0.47920895     0.46100
H1214       H  0.36556411  0.58068215  0.55076747     0.41400
H1215       H  0.34552198  0.37513155  0.53521849     0.44900
H1216       H  0.42871563  0.49279092  0.48215815     0.36400
C1217       C  0.26069174  0.23750938  0.47537506    -0.27900
C1218       C  0.24247809  0.23922245  0.49582920     0.01700
C1219       C  0.21381869  0.21866457  0.49541897     0.29800
C1220       C  0.20348749  0.19736011  0.47447675    -0.19700
C1221       C  0.22158624  0.19592931  0.45377256    -0.29100
C1222       C  0.25063536  0.21589643  0.45452179     0.43900
C1223       C  0.25436846  0.26128523  0.51765920     0.05000
O1224       O  0.19581679  0.21914755  0.51538355    -0.57600
H1225       H  0.18114887  0.18223494  0.47443687     0.18000
O1226       O  0.26906510  0.21604634  0.43479945    -0.64300
H1227       H  0.28282750  0.25333108  0.47554978     0.16400
C1228       C  0.28058825  0.24423675  0.52849435     0.28700
C1229       C  0.29283383  0.26649797  0.54833539    -0.25200
C1230       C  0.27945531  0.30629222  0.55773268    -0.24500
C1231       C  0.25295788  0.32324790  0.54693091     0.40100
C1232       C  0.24050484  0.30053874  0.52705137    -0.26900
O1233       O  0.29386922  0.20491818  0.52019630    -0.58800
H1234       H  0.31287822  0.25207073  0.55647102     0.15800
O1235       O  0.23910581  0.36180738  0.55552155    -0.60300
H1236       H  0.22034543  0.31403100  0.51865814     0.14200
H1237       H  0.28198872  0.18854002  0.43661939     0.46100
H1238       H  0.31172143  0.21528746  0.51093842     0.41400
H1239       H  0.24929346  0.38773522  0.54735678     0.44900
H1240       H  0.20137477  0.19124039  0.52449402     0.36400
C1241       C  0.76192775  0.13076499  0.22597299    -0.27900
C1242       C  0.74706832  0.10767358  0.24443863     0.01700
C1243       C  0.71875673  0.08734213  0.23974363     0.29800
C1244       C  0.70546797  0.09134152  0.21680868    -0.19700
C1245       C  0.72010282  0.11582240  0.19846030    -0.29100
C1246       C  0.74900056  0.13465871  0.20326010     0.43900
C1247       C  0.76061430  0.10951378  0.26881214     0.05000
O1248       O  0.70328915  0.06560539  0.25771649    -0.57600
H1249       H  0.68349555  0.07625848  0.21355277     0.18000
O1250       O  0.76509530  0.15709477  0.18583874    -0.64300
H1251       H  0.78372781  0.14644195  0.22929874     0.16400
C1252       C  0.77375841  0.07098367  0.27983597     0.28700
C1253       C  0.78823006  0.07539905  0.30226702    -0.25200
C1254       C  0.78991265  0.11814244  0.31391041    -0.24500
C1255       C  0.77721782  0.15674193  0.30237200     0.40100
C1256       C  0.76296819  0.15217050  0.28011390    -0.26900
O1257       O  0.77265340  0.02901699  0.26883451    -0.58800
H1258       H  0.79742599  0.04520066  0.31082755     0.15800
O1259       O  0.77908960  0.19951345  0.31249830    -0.60300
H1260       H  0.75365576  0.18232523  0.27155500     0.14200
H1261       H  0.77673387  0.13288706  0.17754441     0.46100
H1262       H  0.79026707  0.02852991  0.25793559     0.41400
H1263       H  0.75885748  0.20540141  0.31940066     0.44900
H1264       H  0.70859461  0.03278316  0.25610288     0.36400
C1265       C  0.81193235  0.37062436  0.39850505    -0.27900
C1266       C  0.78699719  0.38552156  0.38519018     0.01700
C1267       C  0.77469864  0.35666407  0.36739491     0.29800
C1268       C  0.78571389  0.31211414  0.36455337    -0.19700
C1269       C  0.80922753  0.29600231  0.37908310    -0.29100
C1270       C  0.82314636  0.32619678  0.39551889     0.43900
C1271       C  0.77218409  0.42936315  0.39129413     0.05000
O1272       O  0.75156961  0.37164483  0.35302014    -0.57600
H1273       H  0.77483573  0.28932728  0.35183245     0.18000
O1274       O  0.84540331  0.31107857  0.41065454    -0.64300
H1275       H  0.82154650  0.39249678  0.41225388     0.16400
C1276       C  0.74194685  0.42961821  0.39890294     0.28700
C1277       C  0.72677613  0.47106987  0.40158271    -0.25200
C1278       C  0.74154415  0.51285631  0.39741898    -0.24500
C1279       C  0.77253101  0.51286418  0.39197925     0.40100
C1280       C  0.78768243  0.47111646  0.38885411    -0.26900
O1281       O  0.72669624  0.38939729  0.40287296    -0.58800
H1282       H  0.70298591  0.47055542  0.40601412     0.15800
O1283       O  0.78742609  0.55312722  0.38744517    -0.60300
H1284       H  0.81110606  0.47132494  0.38338614     0.14200
H1285       H  0.86457356  0.31778350  0.40219217     0.46100
H1286       H  0.73040259  0.38199300  0.41997071     0.41400
H1287       H  0.79564964  0.56295422  0.40317510     0.44900
H1288       H  0.73347718  0.35420536  0.35818793     0.36400
C1289       C  0.72117802  0.96594610  0.38488081    -0.27900
C1290       C  0.73772181  0.92529673  0.38742931     0.01700
C1291       C  0.76864181  0.92787970  0.39285543     0.29800
C1292       C  0.78278102  0.97040817  0.39490911    -0.19700
C1293       C  0.76669234  0.01141548  0.39147572    -0.29100
C1294       C  0.73544255  0.00882675  0.38669768     0.43900
C1295       C  0.72290726  0.88005179  0.38464603     0.05000
O1296       O  0.78541787  0.88889075  0.39588679    -0.57600
H1297       H  0.80677342  0.97101777  0.39859948     0.18000
O1298       O  0.71867971  0.04773274  0.38347537    -0.64300
H1299       H  0.69729213  0.96441209  0.38084942     0.16400
C1300       C  0.69944555  0.86654819  0.39999943     0.28700
C1301       C  0.68848720  0.82156647  0.39918887    -0.25200
C1302       C  0.70075118  0.78917008  0.38325819    -0.24500
C1303       C  0.72320033  0.80362097  0.36698912     0.40100
C1304       C  0.73404288  0.84869206  0.36778981    -0.26900
O1305       O  0.68891942  0.89586595  0.41726029    -0.58800
H1306       H  0.67155947  0.81142269  0.41213320     0.15800
O1307       O  0.73582881  0.77353669  0.35105834    -0.60300
H1308       H  0.75198897  0.85881065  0.35572422     0.14200
H1309       H  0.71774341  0.05227881  0.36585891     0.46100
H1310       H  0.66995619  0.90857253  0.41059185     0.41400
H1311       H  0.72521811  0.77905499  0.33565518     0.44900
H1312       H  0.78188703  0.87936737  0.41272914     0.36400
C1313       C  0.88928894  0.00950363  0.47495231    -0.27900
C1314       C  0.87690509  0.02716446  0.49635657     0.01700
C1315       C  0.86118499  0.06896592  0.49519858     0.29800
C1316       C  0.85795941  0.09190030  0.47334706    -0.19700
C1317       C  0.86938174  0.07371997  0.45179090    -0.29100
C1318       C  0.88535300  0.03210553  0.45281293     0.43900
C1319       C  0.87819897  0.00066820  0.51941487     0.05000
O1320       O  0.84768619  0.08702655  0.51517750    -0.57600
H1321       H  0.84523528  0.12352179  0.47326479     0.18000
O1322       O  0.89684271  0.01284612  0.43236649    -0.64300
H1323       H  0.90181731  0.97775216  0.47530549     0.16400
C1324       C  0.86994866  0.95409395  0.52006278     0.28700
C1325       C  0.86725413  0.93131663  0.54204054    -0.25200
C1326       C  0.87237800  0.95384054  0.56407791    -0.24500
C1327       C  0.88190944  0.99993263  0.56346570     0.40100
C1328       C  0.88508059  0.02270172  0.54131482    -0.26900
O1329       O  0.86206219  0.93131009  0.49944585    -0.58800
H1330       H  0.85979263  0.89596589  0.54167482     0.15800
O1331       O  0.88786932  0.02328385  0.58428657    -0.60300
H1332       H  0.89216476  0.05822405  0.54132085     0.14200
H1333       H  0.91775531  0.02458717  0.43123534     0.46100
H1334       H  0.87888479  0.90981226  0.49629996     0.41400
H1335       H  0.86900625  0.04000092  0.58802925     0.44900
H1336       H  0.82720572  0.07316013  0.51557790     0.36400
C1337       C  0.96720490  0.12095057  0.34262694    -0.27900
C1338       C  0.98726754  0.14840597  0.35593493     0.01700
C1339       C  0.97529809  0.17953694  0.37271157     0.29800
C1340       C  0.94421568  0.18110452  0.37688698    -0.19700
C1341       C  0.92418654  0.15155956  0.36480951    -0.29100
C1342       C  0.93595039  0.12233557  0.34690089     0.43900
C1343       C  0.02060758  0.14201117  0.35408755     0.05000
O1344       O  0.99394089  0.20702222  0.38614760    -0.57600
H1345       H  0.93598935  0.20422402  0.39057255     0.18000
O1346       O  0.91733260  0.09411423  0.33388075    -0.64300
H1347       H  0.97588442  0.09733778  0.32935749     0.16400
C1348       C  0.03381976  0.09887252  0.35836887     0.28700
C1349       C  0.06519129  0.09505874  0.36116621    -0.25200
C1350       C  0.08397869  0.13394594  0.36012428    -0.24500
C1351       C  0.07094596  0.17641151  0.35399630     0.40100
C1352       C  0.03962379  0.18013758  0.35101087    -0.26900
O1353       O  0.01616631  0.06065734  0.36139542    -0.58800
H1354       H  0.07455492  0.06196928  0.36576516     0.15800
O1355       O  0.08841120  0.21501544  0.35191134    -0.60300
H1356       H  0.02999645  0.21343885  0.34727124     0.14200
H1357       H  0.91765587  0.06431368  0.34242950     0.46100
H1358       H  0.01083752  0.06035804  0.37864851     0.41400
H1359       H  0.09587024  0.21468197  0.33513861     0.44900
H1360       H  0.99997752  0.18806178  0.40008831     0.36400
C1361       C  0.75786318  0.37182178  0.72626469    -0.27900
C1362       C  0.75004828  0.40450665  0.74348215     0.01700
C1363       C  0.72626667  0.43508941  0.73858835     0.29800
C1364       C  0.71121227  0.43338069  0.71635446    -0.19700
C1365       C  0.71966745  0.40130818  0.69885232    -0.29100
C1366       C  0.74301399  0.36998813  0.70419765     0.43900
C1367       C  0.76562066  0.40351557  0.76703951     0.05000
O1368       O  0.71757524  0.46662499  0.75540566    -0.57600
H1369       H  0.69357399  0.45792595  0.71254907     0.18000
O1370       O  0.75112497  0.33666948  0.68809697    -0.64300
H1371       H  0.77568982  0.34749568  0.72996861     0.16400
C1372       C  0.76333651  0.36431085  0.78154799     0.28700
C1373       C  0.77807239  0.36277611  0.80365141    -0.25200
C1374       C  0.79529627  0.40004699  0.81190405    -0.24500
C1375       C  0.79838726  0.43894287  0.79715249     0.40100
C1376       C  0.78343377  0.44058611  0.77486439    -0.26900
O1377       O  0.74600848  0.32766172  0.77453167    -0.58800
H1378       H  0.77511084  0.33278398  0.81486756     0.15800
O1379       O  0.81404260  0.47661250  0.80503802    -0.60300
H1380       H  0.78549992  0.47088971  0.76377919     0.14200
H1381       H  0.77016920  0.34783210  0.68066712     0.46100
H1382       H  0.72516400  0.33544642  0.77944828     0.41400
H1383       H  0.83524795  0.47108090  0.80023752     0.44900
H1384       H  0.70224263  0.45067984  0.76532386     0.36400
C1385       C  0.61674197  0.46191041  0.52742207    -0.27900
C1386       C  0.62627958  0.50685009  0.52310595     0.01700
C1387       C  0.63680084  0.53345789  0.54254541     0.29800
C1388       C  0.63971039  0.51377681  0.56547755    -0.19700
C1389       C  0.63198118  0.46761680  0.56948800    -0.29100
C1390       C  0.61946132  0.44223433  0.55018275     0.43900
C1391       C  0.62704874  0.52413369  0.49798527     0.05000
O1392       O  0.64538676  0.57813977  0.53912541    -0.57600
H1393       H  0.64913135  0.53421902  0.57989151     0.18000
O1394       O  0.61066015  0.39748763  0.55300249    -0.64300
H1395       H  0.60794273  0.44132935  0.51280943     0.16400
C1396       C  0.64387041  0.50110953  0.48027084     0.28700
C1397       C  0.64593377  0.51903396  0.45698556    -0.25200
C1398       C  0.63116046  0.55984296  0.45073246    -0.24500
C1399       C  0.61299568  0.58153918  0.46824712     0.40100
C1400       C  0.61118671  0.56373046  0.49158864    -0.26900
O1401       O  0.65999195  0.46257950  0.48598699    -0.58800
H1402       H  0.66025844  0.50187368  0.44410899     0.15800
O1403       O  0.59697017  0.62032706  0.46284806    -0.60300
H1404       H  0.59756016  0.58121047  0.50482594     0.14200
H1405       H  0.62776009  0.37897005  0.54700106     0.46100
H1406       H  0.64831015  0.43669845  0.47914730     0.41400
H1407       H  0.60914364  0.64605263  0.46930223     0.44900
H1408       H  0.66754083  0.57715412  0.53675059     0.36400
C1409       C  0.81994569  0.65216987  0.62215681    -0.27900
C1410       C  0.79312997  0.63741492  0.63302316     0.01700
C1411       C  0.77625775  0.66877389  0.64671312     0.29800
C1412       C  0.78547513  0.71445775  0.64846135    -0.19700
C1413       C  0.81155326  0.72985643  0.63674535    -0.29100
C1414       C  0.82936820  0.69793674  0.62409977     0.43900
C1415       C  0.78192821  0.58993327  0.62954724     0.05000
O1416       O  0.74989265  0.65556165  0.65755181    -0.57600
H1417       H  0.77138390  0.73843949  0.65811709     0.18000
O1418       O  0.85457659  0.71177929  0.61185367    -0.64300
H1419       H  0.83322580  0.62838682  0.61168904     0.16400
C1420       C  0.77379004  0.57330398  0.60662851     0.28700
C1421       C  0.75806774  0.53158195  0.60442996    -0.25200
C1422       C  0.75044813  0.50636197  0.62493684    -0.24500
C1423       C  0.76047276  0.52155891  0.64759810     0.40100
C1424       C  0.77610798  0.56288489  0.64975685    -0.26900
O1425       O  0.77869500  0.59944236  0.58657612    -0.58800
H1426       H  0.75017740  0.52051263  0.58695710     0.15800
O1427       O  0.75345452  0.49752491  0.66798462    -0.60300
H1428       H  0.78247071  0.57497772  0.66744222     0.14200
H1429       H  0.87139140  0.70900128  0.62353699     0.46100
H1430       H  0.79740557  0.58715239  0.57938944     0.41400
H1431       H  0.76912461  0.47307560  0.66917062     0.44900
H1432       H  0.73394018  0.66065034  0.64534666     0.36400
C1433       C  0.76400147  0.09326878  0.61136908    -0.27900
C1434       C  0.73654286  0.09712753  0.62367676     0.01700
C1435       C  0.72290667  0.05705778  0.63278242     0.29800
C1436       C  0.73806350  0.01494445  0.63130899    -0.19700
C1437       C  0.76703186  0.01223905  0.62113815    -0.29100
C1438       C  0.77938836  0.05169406  0.61032062     0.43900
C1439       C  0.72406834  0.14366551  0.62824883     0.05000
O1440       O  0.69557467  0.05895017  0.64418772    -0.57600
H1441       H  0.72792148  0.98499293  0.63948020     0.18000
O1442       O  0.80720482  0.05069215  0.59963347    -0.64300
H1443       H  0.77426381  0.12322912  0.60330961     0.16400
C1444       C  0.74291374  0.17852911  0.63743082     0.28700
C1445       C  0.73234963  0.22341108  0.63934421    -0.25200
C1446       C  0.70299914  0.23490669  0.63211111    -0.24500
C1447       C  0.68333303  0.19940967  0.62465059     0.40100
C1448       C  0.69398274  0.15429488  0.62263124    -0.26900
O1449       O  0.77181906  0.16892980  0.64469295    -0.58800
H1450       H  0.74786646  0.24967713  0.64546143     0.15800
O1451       O  0.65404915  0.20855461  0.61835969    -0.60300
H1452       H  0.67901486  0.12797432  0.61577896     0.14200
H1453       H  0.80330590  0.04147022  0.58278352     0.46100
H1454       H  0.78515700  0.18396107  0.63280370     0.41400
H1455       H  0.64289916  0.21000184  0.63372673     0.44900
H1456       H  0.70037322  0.06634136  0.66113796     0.36400
C1457       C  0.46815478  0.38938222  0.67393510    -0.27900
C1458       C  0.48773596  0.36313144  0.65955600     0.01700
C1459       C  0.47503024  0.33620631  0.64108152     0.29800
C1460       C  0.44405339  0.33713428  0.63669627    -0.19700
C1461       C  0.42466070  0.36573486  0.64983769    -0.29100
C1462       C  0.43693265  0.39101100  0.66914501     0.43900
C1463       C  0.52136133  0.36674158  0.66197045     0.05000
O1464       O  0.49284477  0.31063285  0.62613129    -0.57600
H1465       H  0.43551113  0.31683275  0.62188908     0.18000
O1466       O  0.41903217  0.41892190  0.68278243    -0.64300
H1467       H  0.47714658  0.40963718  0.68857452     0.16400
C1468       C  0.53594259  0.40975013  0.66247528     0.28700
C1469       C  0.56717027  0.41276707  0.65879884    -0.25200
C1470       C  0.58456314  0.37348400  0.65425824    -0.24500
C1471       C  0.57043306  0.33023092  0.65589079     0.40100
C1472       C  0.53932204  0.32718157  0.66023349    -0.26900
O1473       O  0.51962120  0.44942154  0.66418401    -0.58800
H1474       H  0.57736566  0.44647403  0.65786245     0.15800
O1475       O  0.58651058  0.29070774  0.65247496    -0.60300
H1476       H  0.52889105  0.29361176  0.66076106     0.14200
H1477       H  0.41119195  0.39899640  0.69579612     0.46100
H1478       H  0.52287135  0.46040420  0.68084630     0.41400
H1479       H  0.58284549  0.28198729  0.63547969     0.44900
H1480       H  0.49919389  0.33190877  0.61324048     0.36400
C1481       C  0.74933958  0.27108992  0.53370885    -0.27900
C1482       C  0.73300189  0.27604742  0.51243074     0.01700
C1483       C  0.70749260  0.30442843  0.51185301     0.29800
C1484       C  0.69853869  0.32761188  0.53265699    -0.19700
C1485       C  0.71515621  0.32323362  0.55403955    -0.29100
C1486       C  0.74065888  0.29426953  0.55442247     0.43900
C1487       C  0.74475836  0.25454702  0.49056193     0.05000
O1488       O  0.69106793  0.30921318  0.49114322    -0.57600
H1489       H  0.67863837  0.34899400  0.53206113     0.18000
O1490       O  0.75638094  0.28636434  0.57523245    -0.64300
H1491       H  0.76906897  0.24928014  0.53419765     0.16400
C1492       C  0.76599676  0.27822851  0.47669289     0.28700
C1493       C  0.77973572  0.25644677  0.45740210    -0.25200
C1494       C  0.77275110  0.21072433  0.45166013    -0.24500
C1495       C  0.75088897  0.18723558  0.46524050     0.40100
C1496       C  0.73721659  0.20914652  0.48480099    -0.26900
O1497       O  0.77374974  0.32257126  0.48211515    -0.58800
H1498       H  0.79611117  0.27546348  0.44695042     0.15800
O1499       O  0.74399544  0.14237047  0.46039600    -0.60300
H1500       H  0.72120767  0.19050208  0.49575950     0.14200
H1501       H  0.77362246  0.30802120  0.57481961     0.46100
H1502       H  0.79107987  0.32015828  0.49328038     0.41400
H1503       H  0.72497106  0.14337206  0.45104124     0.44900
H1504       H  0.69941488  0.33682883  0.48320220     0.36400
loop_ 
_geom_bond_atom_site_label_1 
_geom_bond_atom_site_label_2 
_geom_bond_distance 
_geom_bond_site_symmetry_2 
_ccdc_geom_bond_type 
O1           C16   1.261       .  A
O1           Al9   1.895       .  S
C2           O12   1.270       .  A
C2            O3   1.266       .  A
C2         C1389   1.494       .  S
O3           Al5   1.917       .  S
O4            C6   1.259       .  A
O4           Al5   1.897       .  S
Al5          O13   1.904       .  S
Al5          O15   1.911       .  S
Al5          O14   1.785       .  S
C6           O19   1.259       .  A
C6         C1485   1.478       .  S
O7           C17   1.261       .  A
O7           Al9   1.924       .  S
O8           C21   1.274       .  A
O8          Al18   1.933       .  S
Al9          O22   1.895       .  S
Al9          O19   1.892       .  S
Al9          O14   1.776       .  S
O10          C17   1.256       .  A
O10         Al18   1.897       .  S
O11          C20   1.262       .  A
O11         Al18   1.923       .  S
O12         Al18   1.924       .  S
O13          C20   1.259       .  A
O14         Al18   1.787       .  S
O15          C16   1.261       .  A
C16        C1446   1.487       .  S
C17        C1422   1.473       .  S
C20        C1470   1.492       .  S
C21          O22   1.265       .  A
C21        C1365   1.482       .  S
O23          C38   1.258       .  A
O23         Al31   1.864       .  S
C24          O34   1.258       .  A
C24          O25   1.275       .  A
C24        C1317   1.495       .  S
O25         Al27   1.969       .  S
O26          C28   1.253       .  A
O26         Al27   1.868       .  S
Al27         O35   1.907       .  S
Al27         O37   1.968       .  S
Al27         O36   1.782       .  S
C28          O41   1.262       .  A
C28        C1293   1.487       .  S
O29          C39   1.263       .  A
O29         Al31   1.911       .  S
O30          C43   1.265       .  A
O30         Al40   1.897       .  S
Al31         O44   1.926       .  S
Al31         O41   1.930       .  S
Al31         O36   1.783       .  S
O32          C39   1.261       .  A
O32         Al40   1.904       .  S
O33          C42   1.260       .  A
O33         Al40   1.912       .  S
O34         Al40   1.863       .  S
O35          C42   1.258       .  A
O36         Al40   1.782       .  S
O37          C38   1.275       .  A
C38        C1254   1.491       .  S
C39        C1494   1.475       .  S
C42        C1341   1.494       .  S
C43          O44   1.268       .  A
C43        C1269   1.473       .  S
O45          C60   1.258       .  A
O45         Al53   1.866       .  S
C46          O56   1.259       .  A
C46          O47   1.276       .  A
C46        C1206   1.494       .  S
O47         Al49   1.961       .  S
O48          C50   1.255       .  A
O48         Al49   1.882       .  S
Al49         O57   1.928       .  S
Al49         O59   1.956       .  S
Al49         O58   1.790       .  S
C50          O63   1.260       .  A
C50        C1173   1.492       .  S
O51          C61   1.260       .  A
O51         Al53   1.911       .  S
O52          C65   1.266       .  A
O52         Al62   1.896       .  S
Al53         O66   1.929       .  S
Al53         O63   1.923       .  S
Al53         O58   1.785       .  S
O54          C61   1.256       .  A
O54         Al62   1.890       .  S
O55          C64   1.254       .  A
O55         Al62   1.885       .  S
O56         Al62   1.861       .  S
O57          C64   1.260       .  A
O58         Al62   1.786       .  S
O59          C60   1.272       .  A
C60        C1134   1.488       .  S
C61        C1230   1.479       .  S
C64        C1461   1.495       .  S
C65          O66   1.270       .  A
C65        C1149   1.478       .  S
O67          C82   1.262       .  A
O67         Al75   1.903       .  S
C68          O78   1.266       .  A
C68          O69   1.265       .  A
C68        C1062   1.503       .  S
O69         Al71   1.924       .  S
O70          C72   1.259       .  A
O70         Al71   1.886       .  S
Al71         O79   1.902       .  S
Al71         O81   1.916       .  S
Al71         O80   1.788       .  S
C72          O85   1.262       .  A
C72        C1221   1.480       .  S
O73          C83   1.260       .  A
O73         Al75   1.913       .  S
O74          C87   1.274       .  A
O74         Al84   1.946       .  S
Al75         O88   1.898       .  S
Al75         O85   1.905       .  S
Al75         O80   1.787       .  S
O76          C83   1.257       .  A
O76         Al84   1.888       .  S
O77          C86   1.265       .  A
O77         Al84   1.933       .  S
O78         Al84   1.928       .  S
O79          C86   1.261       .  A
O80         Al84   1.786       .  S
O81          C82   1.261       .  A
C82        C1110   1.488       .  S
C83        C1077   1.470       .  S
C86        C1350   1.491       .  S
C87          O88   1.264       .  A
C87        C1038   1.492       .  S
O89         C104   1.260       .  A
O89         Al97   1.896       .  S
C90         O100   1.269       .  A
C90          O91   1.269       .  A
C90        C1053   1.500       .  S
O91         Al93   1.932       .  S
O92          C94   1.257       .  A
O92         Al93   1.879       .  S
Al93        O101   1.914       .  S
Al93        O103   1.922       .  S
Al93        O102   1.787       .  S
C94         O107   1.262       .  A
C94        C1014   1.477       .  S
O95         C105   1.259       .  A
O95         Al97   1.924       .  S
O96         C109   1.275       .  A
O96        Al106   1.931       .  S
Al97        O110   1.908       .  S
Al97        O107   1.903       .  S
Al97        O102   1.779       .  S
O98         C105   1.254       .  A
O98        Al106   1.887       .  S
O99         C108   1.260       .  A
O99        Al106   1.911       .  S
O100       Al106   1.921       .  S
O101        C108   1.261       .  A
O102       Al106   1.784       .  S
O103        C104   1.264       .  A
C104       C1182   1.494       .  S
C105       C1158   1.472       .  S
C108        C990   1.486       .  S
C109        O110   1.269       .  A
C109        C957   1.494       .  S
O111        C126   1.257       .  A
O111       Al119   1.851       .  S
C112        O122   1.258       .  A
C112        O113   1.273       .  A
C112       C1197   1.485       .  S
O113       Al115   1.956       .  S
O114        C116   1.254       .  A
O114       Al115   1.882       .  S
Al115       O123   1.906       .  S
Al115       O125   1.971       .  S
Al115       O124   1.783       .  S
C116        O129   1.264       .  A
C116       C1101   1.489       .  S
O117        C127   1.264       .  A
O117       Al119   1.908       .  S
O118        C131   1.264       .  A
O118       Al128   1.901       .  S
Al119       O132   1.932       .  S
Al119       O129   1.949       .  S
Al119       O124   1.778       .  S
O120        C127   1.262       .  A
O120       Al128   1.905       .  S
O121        C130   1.258       .  A
O121       Al128   1.901       .  S
O122       Al128   1.868       .  S
O123        C130   1.259       .  A
O124       Al128   1.780       .  S
O125        C126   1.276       .  A
C126        C918   1.488       .  S
C127       C1005   1.464       .  S
C130        C942   1.474       .  S
C131        O132   1.269       .  A
C131       C1086   1.482       .  S
O133        C148   1.259       .  A
O133       Al141   1.863       .  S
C134        O144   1.259       .  A
C134        O135   1.276       .  A
C134       C1326   1.497       .  S
O135       Al137   1.968       .  S
O136        C138   1.255       .  A
O136       Al137   1.883       .  S
Al137       O145   1.923       .  S
Al137       O147   1.964       .  S
Al137       O146   1.786       .  S
C138        O151   1.260       .  A
C138       C1437   1.485   1_565  S
O139        C149   1.260       .  A
O139       Al141   1.909       .  S
O140        C153   1.264       .  A
O140       Al150   1.898       .  S
Al141       O154   1.928       .  S
Al141       O151   1.919       .  S
Al141       O146   1.783       .  S
O142        C149   1.256       .  A
O142       Al150   1.881       .  S
O143        C152   1.253       .  A
O143       Al150   1.880       .  S
O144       Al150   1.862       .  S
O145        C152   1.261       .  A
O146       Al150   1.783       .  S
O147        C148   1.274       .  A
C148        C861   1.493       .  S
C149        C894   1.462       .  S
C152        C981   1.490       .  S
C153        O154   1.268       .  A
C153       C1413   1.479       .  S
O155        C170   1.260       .  A
O155       Al163   1.897       .  S
C156        O166   1.269       .  A
C156        O157   1.264       .  A
C156       C1398   1.492       .  S
O157       Al159   1.914       .  S
O158        C160   1.256       .  A
O158       Al159   1.878       .  S
Al159       O167   1.901       .  S
Al159       O169   1.907       .  S
Al159       O168   1.788       .  S
C160        O173   1.259       .  A
C160        C885   1.473       .  S
O161        C171   1.260       .  A
O161       Al163   1.914       .  S
O162        C175   1.274       .  A
O162       Al172   1.938       .  S
Al163       O176   1.896       .  S
Al163       O173   1.896       .  S
Al163       O168   1.786       .  S
O164        C171   1.255       .  A
O164       Al172   1.887       .  S
O165        C174   1.259       .  A
O165       Al172   1.910       .  S
O166       Al172   1.921       .  S
O167        C174   1.260       .  A
O168       Al172   1.785       .  S
O169        C170   1.262       .  A
C170       C1302   1.486       .  S
C171       C1278   1.473       .  S
C174        C933   1.482       .  S
C175        O176   1.264       .  A
C175        C846   1.489       .  S
O177        C192   1.261       .  A
O177       Al185   1.897       .  S
C178        O188   1.267       .  A
C178        O179   1.267       .  A
C178        C717   1.501       .  S
O179       Al181   1.930       .  S
O180        C182   1.257       .  A
O180       Al181   1.883       .  S
Al181       O189   1.908       .  S
Al181       O191   1.919       .  S
Al181       O190   1.785       .  S
C182        O195   1.261       .  A
C182        C813   1.464       .  S
O183        C193   1.261       .  A
O183       Al185   1.925       .  S
O184        C197   1.273       .  A
O184       Al194   1.929       .  S
Al185       O198   1.897       .  S
Al185       O195   1.902       .  S
Al185       O190   1.779       .  S
O186        C193   1.254       .  A
O186       Al194   1.886       .  S
O187        C196   1.263       .  A
O187       Al194   1.922       .  S
O188       Al194   1.922       .  S
O189        C196   1.262       .  A
O190       Al194   1.784       .  S
O191        C192   1.263       .  A
C192        C774   1.489       .  S
C193        C750   1.470       .  S
C196        C789   1.490       .  S
C197        O198   1.265       .  A
C197       C1374   1.478       .  S
O199        C214   1.259       .  A
O199       Al207   1.865       .  S
C200        O210   1.256       .  A
C200        O201   1.273       .  A
C200        C678   1.478       .  S
O201       Al203   1.962       .  S
O202        C204   1.255       .  A
O202       Al203   1.884       .  S
Al203       O211   1.912       .  S
Al203       O213   1.969       .  S
Al203       O212   1.785       .  S
C204        O217   1.262       .  A
C204        C654   1.489       .  S
O205        C215   1.263       .  A
O205       Al207   1.907       .  S
O206        C219   1.264       .  A
O206       Al216   1.898       .  S
Al207       O220   1.933       .  S
Al207       O217   1.935       .  S
Al207       O212   1.780       .  S
O208        C215   1.259       .  A
O208       Al216   1.893       .  S
O209        C218   1.258       .  A
O209       Al216   1.899       .  S
O210       Al216   1.861       .  S
O211        C218   1.261       .  A
O212       Al216   1.781       .  S
O213        C214   1.275       .  A
C214       C1245   1.491       .  S
C215        C822   1.468       .  S
C218        C693   1.489       .  S
C219        O220   1.268       .  A
C219        C621   1.477       .  S
O221        C236   1.259       .  A
O221       Al229   1.872       .  S
C222        O232   1.258       .  A
C222        O223   1.272       .  A
C222        C573   1.481       .  S
O223       Al225   1.951       .  S
O224        C226   1.256       .  A
O224       Al225   1.880       .  S
Al225       O233   1.916       .  S
Al225       O235   1.953       .  S
Al225       O234   1.783       .  S
C226        O239   1.264       .  A
C226        C558   1.488       .  S
O227        C237   1.264       .  A
O227       Al229   1.916       .  S
O228        C241   1.266       .  A
O228       Al238   1.902       .  S
Al229       O242   1.930       .  S
Al229       O239   1.936       .  S
Al229       O234   1.780       .  S
O230        C237   1.259       .  A
O230       Al238   1.893       .  S
O231        C240   1.259       .  A
O231       Al238   1.905       .  S
O232       Al238   1.868       .  S
O233        C240   1.261       .  A
O234       Al238   1.779       .  S
O235        C236   1.271       .  A
C236       C1125   1.479       .  S
C237        C606   1.470       .  S
C240        C798   1.495       .  S
C241        O242   1.269       .  A
C241        C534   1.483       .  S
O243        C258   1.259       .  A
O243       Al251   1.892       .  S
C244        O254   1.267       .  A
C244        O245   1.265       .  A
C244        C462   1.495       .  S
O245       Al247   1.924       .  S
O246        C248   1.256       .  A
O246       Al247   1.879       .  S
Al247       O255   1.915       .  S
Al247       O257   1.918       .  S
Al247       O256   1.792       .  S
C248        O261   1.262       .  A
C248        C597   1.469       .  S
O249        C259   1.259       .  A
O249       Al251   1.920       .  S
O250        C263   1.273       .  A
O250       Al260   1.927       .  S
Al251       O264   1.906       .  S
Al251       O261   1.909       .  S
Al251       O256   1.786       .  S
O252        C259   1.252       .  A
O252       Al260   1.877       .  S
O253        C262   1.259       .  A
O253       Al260   1.904       .  S
O254       Al260   1.915       .  S
O255        C262   1.261       .  A
O256       Al260   1.786       .  S
O257        C258   1.262       .  A
C258        C501   1.493       .  S
C259        C486   1.472       .  S
C262        C702   1.484       .  S
C263        O264   1.266       .  A
C263       C1029   1.484       .  S
O265        C280   1.260       .  A
O265       Al273   1.895       .  S
C266        O276   1.268       .  A
C266        O267   1.267       .  A
C266        C453   1.494       .  S
O267       Al269   1.927       .  S
O268        C270   1.256       .  A
O268       Al269   1.883       .  S
Al269       O277   1.908       .  S
Al269       O279   1.918       .  S
Al269       O278   1.785       .  S
C270        O283   1.262       .  A
C270        C438   1.472       .  S
O271        C281   1.261       .  A
O271       Al273   1.925       .  S
O272        C285   1.274       .  A
O272       Al282   1.927       .  S
Al273       O286   1.908       .  S
Al273       O283   1.910       .  S
Al273       O278   1.780       .  S
O274        C281   1.256       .  A
O274       Al282   1.895       .  S
O275        C284   1.262       .  A
O275       Al282   1.919       .  S
O276       Al282   1.912       .  S
O277        C284   1.259       .  A
O278       Al282   1.784       .  S
O279        C280   1.264       .  A
C280        C549   1.490       .  S
C281        C525   1.471       .  S
C284        C414   1.487       .  S
C285        O286   1.267       .  A
C285        C966   1.487       .  S
O287        C302   1.259       .  A
O287       Al295   1.863       .  S
C288        O298   1.258       .  A
C288        O289   1.272       .  A
C288        C582   1.486       .  S
O289       Al291   1.946       .  S
O290        C292   1.256       .  A
O290       Al291   1.883       .  S
Al291       O299   1.904       .  S
Al291       O301   1.947       .  S
Al291       O300   1.782       .  S
C292        O305   1.262       .  A
C292        C510   1.486       .  S
O293        C303   1.260       .  A
O293       Al295   1.905       .  S
O294        C307   1.264       .  A
O294       Al304   1.896       .  S
Al295       O308   1.927       .  S
Al295       O305   1.927       .  S
Al295       O300   1.779       .  S
O296        C303   1.261       .  A
O296       Al304   1.910       .  S
O297        C306   1.261       .  A
O297       Al304   1.911       .  S
O298       Al304   1.867       .  S
O299        C306   1.258       .  A
O300       Al304   1.782       .  S
O301        C302   1.270       .  A
C302        C909   1.477       .  S
C303        C429   1.467       .  S
C306        C390   1.492       .  S
C307        O308   1.268       .  A
C307        C477   1.474       .  S
O309        C324   1.258       .  A
O309       Al317   1.864       .  S
C310        O320   1.262       .  A
C310        O311   1.271       .  A
C310        C669   1.489       .  S
O311       Al313   1.941       .  S
O312        C314   1.256       .  A
O312       Al313   1.887       .  S
Al313       O321   1.918       .  S
Al313       O323   1.954       .  S
Al313       O322   1.786       .  S
C314        O327   1.262       .  A
C314        C765   1.487   1_565  S
O315        C325   1.261       .  A
O315       Al317   1.907       .  S
O316        C329   1.266       .  A
O316       Al326   1.903       .  S
Al317       O330   1.925       .  S
Al317       O327   1.927       .  S
Al317       O322   1.782       .  S
O318        C325   1.258       .  A
O318       Al326   1.895       .  S
O319        C328   1.258       .  A
O319       Al326   1.900       .  S
O320       Al326   1.884       .  S
O321        C328   1.262       .  A
O322       Al326   1.784       .  S
O323        C324   1.271       .  A
C324        C870   1.486       .  S
C325        C357   1.470       .  S
C328        C405   1.491       .  S
C329        O330   1.268       .  A
C329        C741   1.481       .  S
O331        C346   1.261       .  A
O331       Al339   1.892       .  S
C332        O342   1.269       .  A
C332        O333   1.269       .  A
C332        C726   1.499       .  S
O333       Al335   1.927       .  S
O334        C336   1.256       .  A
O334       Al335   1.886       .  S
Al335       O343   1.908       .  S
Al335       O345   1.927       .  S
Al335       O344   1.787       .  S
C336        O349   1.258       .  A
C336        C366   1.471       .  S
O337        C347   1.262       .  A
O337       Al339   1.927       .  S
O338        C351   1.279       .  A
O338       Al348   1.950       .  S
Al339       O352   1.891       .  S
Al339       O349   1.898       .  S
Al339       O344   1.777       .  S
O340        C347   1.254       .  A
O340       Al348   1.889       .  S
O341        C350   1.261       .  A
O341       Al348   1.923       .  S
O342       Al348   1.924       .  S
O343        C350   1.260       .  A
O344       Al348   1.788       .  S
O345        C346   1.265       .  A
C346        C645   1.493       .  S
C347        C630   1.470       .  S
C350        C381   1.490       .  S
C351        O352   1.265       .  A
C351        C837   1.497       .  S
C353        C354   1.404       .  A
C353        C358   1.402       .  A
C353        H363   1.083       .  S
C354        C359   1.469   1_556  S
C354        C355   1.401       .  A
C355        C356   1.392       .  A
C355        O360   1.372       .  S
C356        C357   1.406       .  A
C356        H361   1.084       .  S
C357        C358   1.407       .  A
C358        O362   1.371       .  S
C359        C364   1.405       .  A
C359        C368   1.399       .  A
O360        H376   0.992       .  S
O362        H373   0.993       .  S
C364        C365   1.399       .  A
C364        O369   1.371   1_554  S
C365        C366   1.405       .  A
C365        H370   1.084       .  S
C366        C367   1.411       .  A
C367        C368   1.395       .  A
C367        O371   1.372       .  S
C368        H372   1.084       .  S
O369        H374   0.991       .  S
O371        H375   0.990       .  S
C377        C378   1.405       .  A
C377        C382   1.403       .  A
C377        H387   1.083       .  S
C378        C383   1.492   1_655  S
C378        C379   1.410       .  A
C379        C380   1.404       .  A
C379        O384   1.372       .  S
C380        C381   1.409       .  A
C380        H385   1.084       .  S
C381        C382   1.410       .  A
C382        O386   1.371       .  S
C383        C388   1.408       .  A
C383        C392   1.406       .  A
O384        H400   0.992       .  S
O386        H397   0.992       .  S
C388        C389   1.398       .  A
C388        O393   1.372       .  S
C389        C390   1.406       .  A
C389        H394   1.083       .  S
C390        C391   1.415       .  A
C391        C392   1.407       .  A
C391        O395   1.371       .  S
C392        H396   1.083       .  S
O393        H398   0.992       .  S
O395        H399   0.992       .  S
C401        C402   1.409       .  A
C401        C406   1.405       .  A
C401        H411   1.083       .  S
C402        C407   1.500       .  S
C402        C403   1.412       .  A
C403        C404   1.401       .  A
C403        O408   1.372       .  S
C404        C405   1.408       .  A
C404        H409   1.084       .  S
C405        C406   1.410       .  A
C406        O410   1.371       .  S
C407        C412   1.413       .  A
C407        C416   1.410       .  A
O408        H424   0.991       .  S
O410        H421   0.992       .  S
C412        C413   1.398       .  A
C412        O417   1.372       .  S
C413        C414   1.404       .  A
C413        H418   1.084       .  S
C414        C415   1.410       .  A
C415        C416   1.407       .  A
C415        O419   1.371       .  S
C416        H420   1.083       .  S
O417        H422   0.992       .  S
O419        H423   0.991       .  S
C425        C426   1.399       .  A
C425        C430   1.393       .  A
C425        H435   1.084       .  S
C426        C431   1.474       .  S
C426        C427   1.410       .  A
C427        C428   1.403       .  A
C427        O432   1.372       .  S
C428        C429   1.401       .  A
C428        H433   1.084       .  S
C429        C430   1.409       .  A
C430        O434   1.372       .  S
C431        C436   1.406   1_554  A
C431        C440   1.403       .  A
O432        H448   0.991       .  S
O434        H445   0.993       .  S
C436        C437   1.395       .  A
C436        O441   1.372       .  S
C437        C438   1.404       .  A
C437        H442   1.084       .  S
C438        C439   1.410       .  A
C439        C440   1.400   1_556  A
C439        O443   1.372       .  S
C440        H444   1.084       .  S
O441        H446   0.992       .  S
O443        H447   0.992       .  S
C449        C450   1.402       .  A
C449        C454   1.404       .  A
C449        H459   1.084       .  S
C450        C455   1.488   1_566  S
C450        C451   1.409   1_565  A
C451        C452   1.403   1_545  A
C451        O456   1.372       .  S
C452        C453   1.408       .  A
C452        H457   1.083   1_565  S
C453        C454   1.417       .  A
C454        O458   1.372       .  S
C455        C460   1.408   1_545  A
C455        C464   1.401       .  A
O456        H472   0.993       .  S
O458        H469   0.995       .  S
C460        C461   1.404   1_565  A
C460        O465   1.372       .  S
C461        C462   1.407       .  A
C461        H466   1.082   1_545  S
C462        C463   1.418       .  A
C463        C464   1.403       .  A
C463        O467   1.372       .  S
C464        H468   1.084       .  S
O465        H470   0.990       .  S
O467        H471   0.995       .  S
C473        C474   1.404       .  A
C473        C478   1.399       .  A
C473        H483   1.084       .  S
C474        C479   1.479       .  S
C474        C475   1.405       .  A
C475        C476   1.401       .  A
C475        O480   1.371       .  S
C476        C477   1.406       .  A
C476        H481   1.084       .  S
C477        C478   1.407       .  A
C478        O482   1.372       .  S
C479        C484   1.409       .  A
C479        C488   1.401       .  A
O480        H496   0.990       .  S
O482        H493   0.992       .  S
C484        C485   1.405   1_565  A
C484        O489   1.371       .  S
C485        C486   1.404       .  A
C485        H490   1.083       .  S
C486        C487   1.409   1_545  A
C487        C488   1.395       .  A
C487        O491   1.371       .  S
C488        H492   1.084       .  S
O489        H494   0.992       .  S
O491        H495   0.992       .  S
C497        C498   1.401       .  A
C497        C502   1.399       .  A
C497        H507   1.084       .  S
C498        C503   1.485       .  S
C498        C499   1.406       .  A
C499        C500   1.405       .  A
C499        O504   1.371       .  S
C500        C501   1.410       .  A
C500        H505   1.083       .  S
C501        C502   1.415       .  A
C502        O506   1.372       .  S
C503        C508   1.407       .  A
C503        C512   1.403       .  A
O504        H520   0.992       .  S
O506        H517   0.993       .  S
C508        C509   1.398       .  A
C508        O513   1.373       .  S
C509        C510   1.406       .  A
C509        H514   1.084       .  S
C510        C511   1.414       .  A
C511        C512   1.405       .  A
C511        O515   1.372       .  S
C512        H516   1.083       .  S
O513        H518   0.990       .  S
O515        H519   0.992       .  S
C521        C522   1.400       .  A
C521        C526   1.397       .  A
C521        H531   1.084       .  S
C522        C527   1.481       .  S
C522        C523   1.411       .  A
C523        C524   1.407       .  A
C523        O528   1.372       .  S
C524        C525   1.402   1_545  A
C524        H529   1.084       .  S
C525        C526   1.409   1_565  A
C526        O530   1.372   1_545  S
C527        C532   1.407       .  A
C527        C536   1.401       .  A
O528        H544   0.991       .  S
O530        H541   0.996       .  S
C532        C533   1.399       .  A
C532        O537   1.372       .  S
C533        C534   1.405       .  A
C533        H538   1.084       .  S
C534        C535   1.414       .  A
C535        C536   1.404       .  A
C535        O539   1.371       .  S
C536        H540   1.083       .  S
O537        H542   0.992       .  S
O539        H543   0.993       .  S
C545        C546   1.402       .  A
C545        C550   1.401       .  A
C545        H555   1.084       .  S
C546        C551   1.481       .  S
C546        C547   1.404       .  A
C547        C548   1.402       .  A
C547        O552   1.371       .  S
C548        C549   1.409       .  A
C548        H553   1.083       .  S
C549        C550   1.415       .  A
C550        O554   1.371       .  S
C551        C556   1.405       .  A
C551        C560   1.403       .  A
O552        H568   0.992       .  S
O554        H565   0.992       .  S
C556        C557   1.398       .  A
C556        O561   1.372       .  S
C557        C558   1.408       .  A
C557        H562   1.084       .  S
C558        C559   1.414       .  A
C559        C560   1.406       .  A
C559        O563   1.371       .  S
C560        H564   1.083       .  S
O561        H566   0.991       .  S
O563        H567   0.992       .  S
C569        C570   1.403       .  A
C569        C574   1.396       .  A
C569        H579   1.083   1_556  S
C570        C575   1.492   1_556  S
C570        C571   1.415       .  A
C571        C572   1.404       .  A
C571        O576   1.371       .  S
C572        C573   1.402       .  A
C572        H577   1.083       .  S
C573        C574   1.413       .  A
C574        O578   1.373       .  S
C575        C580   1.414       .  A
C575        C584   1.402       .  A
O576        H592   0.991       .  S
O578        H589   0.992       .  S
C580        C581   1.405       .  A
C580        O585   1.373       .  S
C581        C582   1.404       .  A
C581        H586   1.084       .  S
C582        C583   1.414       .  A
C583        C584   1.398       .  A
C583        O587   1.373       .  S
C584        H588   1.083       .  S
O585        H590   0.995       .  S
O587        H591   0.991       .  S
C593        C594   1.400       .  A
C593        C598   1.395       .  A
C593        H603   1.084       .  S
C594        C599   1.468   1_554  S
C594        C595   1.405       .  A
C595        C596   1.399       .  A
C595        O600   1.372   1_554  S
C596        C597   1.405       .  A
C596        H601   1.084       .  S
C597        C598   1.408       .  A
C598        O602   1.372       .  S
C599        C604   1.401       .  A
C599        C608   1.405       .  A
O600        H616   0.991       .  S
O602        H613   0.992       .  S
C604        C605   1.391       .  A
C604        O609   1.372       .  S
C605        C606   1.407       .  A
C605        H610   1.084       .  S
C606        C607   1.406       .  A
C607        C608   1.403       .  A
C607        O611   1.372       .  S
C608        H612   1.083       .  S
O609        H614   0.992       .  S
O611        H615   0.991       .  S
C617        C618   1.408       .  A
C617        C622   1.402       .  A
C617        H627   1.083       .  S
C618        C623   1.491       .  S
C618        C619   1.409       .  A
C619        C620   1.401       .  A
C619        O624   1.371       .  S
C620        C621   1.404       .  A
C620        H625   1.084       .  S
C621        C622   1.407       .  A
C622        O626   1.372       .  S
C623        C628   1.409       .  A
C623        C632   1.410       .  A
O624        H640   0.992       .  S
O626        H637   0.992       .  S
C628        C629   1.398       .  A
C628        O633   1.372       .  S
C629        C630   1.404       .  A
C629        H634   1.085       .  S
C630        C631   1.403       .  A
C631        C632   1.405       .  A
C631        O635   1.371       .  S
C632        H636   1.083       .  S
O633        H638   0.992       .  S
O635        H639   0.992       .  S
C641        C642   1.405       .  A
C641        C646   1.408       .  A
C641        H651   1.083       .  S
C642        C647   1.489       .  S
C642        C643   1.408       .  A
C643        C644   1.397       .  A
C643        O648   1.372       .  S
C644        C645   1.408       .  A
C644        H649   1.083       .  S
C645        C646   1.416       .  A
C646        O650   1.371       .  S
C647        C652   1.408       .  A
C647        C656   1.403       .  A
O648        H664   0.992       .  S
O650        H661   0.991       .  S
C652        C653   1.408   1_565  A
C652        O657   1.371       .  S
C653        C654   1.409       .  A
C653        H658   1.083       .  S
C654        C655   1.413   1_545  A
C655        C656   1.398       .  A
C655        O659   1.372       .  S
C656        H660   1.084       .  S
O657        H662   0.991       .  S
O659        H663   0.992       .  S
C665        C666   1.407   1_545  A
C665        C670   1.403   1_545  A
C665        H675   1.084       .  S
C666        C671   1.491   1_566  S
C666        C667   1.408       .  A
C667        C668   1.401       .  A
C667        O672   1.371   1_556  S
C668        C669   1.408       .  A
C668        H673   1.083       .  S
C669        C670   1.412       .  A
C670        O674   1.371   1_565  S
C671        C676   1.409       .  A
C671        C680   1.410       .  A
O672        H688   0.995       .  S
O674        H685   0.990       .  S
C676        C677   1.396       .  A
C676        O681   1.372       .  S
C677        C678   1.405       .  A
C677        H682   1.085       .  S
C678        C679   1.406       .  A
C679        C680   1.408       .  A
C679        O683   1.371       .  S
C680        H684   1.083   1_545  S
O681        H686   0.993       .  S
O683        H687   0.991       .  S
C689        C690   1.402       .  A
C689        C694   1.398       .  A
C689        H699   1.083       .  S
C690        C695   1.492       .  S
C690        C691   1.413       .  A
C691        C692   1.405       .  A
C691        O696   1.372       .  S
C692        C693   1.407       .  A
C692        H697   1.083       .  S
C693        C694   1.414       .  A
C694        O698   1.371       .  S
C695        C700   1.413       .  A
C695        C704   1.402       .  A
O696        H712   0.991       .  S
O698        H709   0.992       .  S
C700        C701   1.408       .  A
C700        O705   1.372       .  S
C701        C702   1.404       .  A
C701        H706   1.083       .  S
C702        C703   1.413       .  A
C703        C704   1.397       .  A
C703        O707   1.372       .  S
C704        H708   1.083       .  S
O705        H710   0.991       .  S
O707        H711   0.991       .  S
C713        C714   1.406       .  A
C713        C718   1.407       .  A
C713        H723   1.083       .  S
C714        C719   1.499   1_556  S
C714        C715   1.409       .  A
C715        C716   1.407       .  A
C715        O720   1.372   1_556  S
C716        C717   1.411       .  A
C716        H721   1.083       .  S
C717        C718   1.414       .  A
C718        O722   1.371       .  S
C719        C724   1.408       .  A
C719        C728   1.408       .  A
O720        H736   0.989       .  S
O722        H733   0.991       .  S
C724        C725   1.404       .  A
C724        O729   1.372       .  S
C725        C726   1.410       .  A
C725        H730   1.083       .  S
C726        C727   1.414       .  A
C727        C728   1.410       .  A
C727        O731   1.371       .  S
C728        H732   1.083       .  S
O729        H734   0.993       .  S
O731        H735   0.992       .  S
C737        C738   1.406       .  A
C737        C742   1.401       .  A
C737        H747   1.083       .  S
C738        C743   1.488       .  S
C738        C739   1.408       .  A
C739        C740   1.402       .  A
C739        O744   1.371       .  S
C740        C741   1.406       .  A
C740        H745   1.083       .  S
C741        C742   1.410       .  A
C742        O746   1.373       .  S
C743        C748   1.408       .  A
C743        C752   1.410       .  A
O744        H760   0.992       .  S
O746        H757   0.992       .  S
C748        C749   1.399       .  A
C748        O753   1.373       .  S
C749        C750   1.404       .  A
C749        H754   1.085       .  S
C750        C751   1.403       .  A
C751        C752   1.405       .  A
C751        O755   1.371       .  S
C752        H756   1.083       .  S
O753        H758   0.991       .  S
O755        H759   0.994       .  S
C761        C762   1.403       .  A
C761        C766   1.399       .  A
C761        H771   1.084       .  S
C762        C767   1.487       .  S
C762        C763   1.408       .  A
C763        C764   1.404       .  A
C763        O768   1.371       .  S
C764        C765   1.407       .  A
C764        H769   1.083   1_545  S
C765        C766   1.413       .  A
C766        O770   1.371       .  S
C767        C772   1.408       .  A
C767        C776   1.404       .  A
O768        H784   0.992       .  S
O770        H781   0.992       .  S
C772        C773   1.399       .  A
C772        O777   1.373       .  S
C773        C774   1.406       .  A
C773        H778   1.083       .  S
C774        C775   1.415       .  A
C775        C776   1.405       .  A
C775        O779   1.371       .  S
C776        H780   1.083       .  S
O777        H782   0.991       .  S
O779        H783   0.991       .  S
C785        C786   1.403       .  A
C785        C790   1.402       .  A
C785        H795   1.083       .  S
C786        C791   1.493   1_655  S
C786        C787   1.412       .  A
C787        C788   1.403       .  A
C787        O792   1.371       .  S
C788        C789   1.406       .  A
C788        H793   1.083       .  S
C789        C790   1.415       .  A
C790        O794   1.372       .  S
C791        C796   1.411       .  A
C791        C800   1.402       .  A
O792        H808   0.992       .  S
O794        H805   0.991       .  S
C796        C797   1.409       .  A
C796        O801   1.372       .  S
C797        C798   1.408       .  A
C797        H802   1.083       .  S
C798        C799   1.416       .  A
C799        C800   1.398       .  A
C799        O803   1.372       .  S
C800        H804   1.084       .  S
O801        H806   0.992       .  S
O803        H807   0.992       .  S
C809        C810   1.405       .  A
C809        C814   1.398       .  A
C809        H819   1.083   1_556  S
C810        C815   1.476   1_556  S
C810        C811   1.408       .  A
C811        C812   1.393       .  A
C811        O816   1.372       .  S
C812        C813   1.402       .  A
C812        H817   1.084       .  S
C813        C814   1.407       .  A
C814        O818   1.372       .  S
C815        C820   1.410       .  A
C815        C824   1.400       .  A
O816        H832   0.992       .  S
O818        H829   0.992       .  S
C820        C821   1.400       .  A
C820        O825   1.371       .  S
C821        C822   1.402       .  A
C821        H826   1.083       .  S
C822        C823   1.410       .  A
C823        C824   1.391       .  A
C823        O827   1.373       .  S
C824        H828   1.084       .  S
O825        H830   0.992       .  S
O827        H831   0.990       .  S
C833        C834   1.409       .  A
C833        C838   1.411       .  A
C833        H843   1.083       .  S
C834        C839   1.485       .  S
C834        C835   1.400       .  A
C835        C836   1.396       .  A
C835        O840   1.372       .  S
C836        C837   1.415       .  A
C836        H841   1.083       .  S
C837        C838   1.411       .  A
C838        O842   1.371       .  S
C839        C844   1.411       .  A
C839        C848   1.397       .  A
O840        H856   0.993       .  S
O842        H853   0.992       .  S
C844        C845   1.410       .  A
C844        O849   1.371       .  S
C845        C846   1.405       .  A
C845        H850   1.083       .  S
C846        C847   1.417       .  A
C847        C848   1.398       .  A
C847        O851   1.372       .  S
C848        H852   1.084       .  S
O849        H854   0.992       .  S
O851        H855   0.999       .  S
C857        C858   1.408       .  A
C857        C862   1.413       .  A
C857        H867   1.083       .  S
C858        C863   1.486       .  S
C858        C859   1.403       .  A
C859        C860   1.394       .  A
C859        O864   1.373       .  S
C860        C861   1.409       .  A
C860        H865   1.083       .  S
C861        C862   1.412       .  A
C862        O866   1.371       .  S
C863        C868   1.406       .  A
C863        C872   1.406       .  A
O864        H880   0.992       .  S
O866        H877   0.992       .  S
C868        C869   1.394       .  A
C868        O873   1.372       .  S
C869        C870   1.406       .  A
C869        H874   1.084       .  S
C870        C871   1.413       .  A
C871        C872   1.410       .  A
C871        O875   1.371       .  S
C872        H876   1.083       .  S
O873        H878   0.992       .  S
O875        H879   0.991       .  S
C881        C882   1.402       .  A
C881        C886   1.394       .  A
C881        H891   1.084       .  S
C882        C887   1.468       .  S
C882        C883   1.402       .  A
C883        C884   1.395       .  A
C883        O888   1.372       .  S
C884        C885   1.407       .  A
C884        H889   1.083       .  S
C885        C886   1.411       .  A
C886        O890   1.372       .  S
C887        C892   1.402       .  A
C887        C896   1.406       .  A
O888        H904   0.991       .  S
O890        H901   0.992       .  S
C892        C893   1.387       .  A
C892        O897   1.373       .  S
C893        C894   1.403       .  A
C893        H898   1.085       .  S
C894        C895   1.405       .  A
C895        C896   1.401       .  A
C895        O899   1.371       .  S
C896        H900   1.083       .  S
O897        H902   0.993       .  S
O899        H903   0.993       .  S
C905        C906   1.407       .  A
C905        C910   1.409       .  A
C905        H915   1.083       .  S
C906        C911   1.475       .  S
C906        C907   1.401       .  A
C907        C908   1.391       .  A
C907        O912   1.372       .  S
C908        C909   1.405       .  A
C908        H913   1.084       .  S
C909        C910   1.409       .  A
C910        O914   1.371       .  S
C911        C916   1.401       .  A
C911        C920   1.405       .  A
O912        H928   0.992       .  S
O914        H925   0.994       .  S
C916        C917   1.392       .  A
C916        O921   1.372       .  S
C917        C918   1.411       .  A
C917        H922   1.084       .  S
C918        C919   1.412       .  A
C919        C920   1.408       .  A
C919        O923   1.371       .  S
C920        H924   1.083       .  S
O921        H926   0.991       .  S
O923        H927   0.991       .  S
C929        C930   1.405       .  A
C929        C934   1.403       .  A
C929        H939   1.083       .  S
C930        C935   1.491       .  S
C930        C931   1.412       .  A
C931        C932   1.402       .  A
C931        O936   1.373       .  S
C932        C933   1.403       .  A
C932        H937   1.084       .  S
C933        C934   1.411       .  A
C934        O938   1.371       .  S
C935        C940   1.411       .  A
C935        C944   1.407       .  A
O936        H952   0.994       .  S
O938        H949   0.993       .  S
C940        C941   1.400       .  A
C940        O945   1.371       .  S
C941        C942   1.402       .  A
C941        H946   1.084       .  S
C942        C943   1.408       .  A
C943        C944   1.403       .  A
C943        O947   1.372       .  S
C944        H948   1.083       .  S
O945        H950   0.992       .  S
O947        H951   0.992       .  S
C953        C954   1.407       .  A
C953        C958   1.409       .  A
C953        H963   1.083       .  S
C954        C959   1.484       .  S
C954        C955   1.402       .  A
C955        C956   1.397       .  A
C955        O960   1.372       .  S
C956        C957   1.411       .  A
C956        H961   1.083       .  S
C957        C958   1.413       .  A
C958        O962   1.371       .  S
C959        C964   1.410       .  A
C959        C968   1.398       .  A
O960        H976   0.993       .  S
O962        H973   0.992       .  S
C964        C965   1.408       .  A
C964        O969   1.372       .  S
C965        C966   1.405       .  A
C965        H970   1.083       .  S
C966        C967   1.416       .  A
C967        C968   1.399       .  A
C967        O971   1.372       .  S
C968        H972   1.084       .  S
O969        H974   0.991       .  S
O971        H975   0.995       .  S
C977        C978   1.401       .  A
C977        C982   1.397       .  A
C977        H987   1.083       .  S
C978        C983   1.492   1_655  S
C978        C979   1.413       .  A
C979        C980   1.406       .  A
C979        O984   1.371       .  S
C980        C981   1.405       .  A
C980        H985   1.083       .  S
C981        C982   1.416       .  A
C982        O986   1.373       .  S
C983        C988   1.413       .  A
C983        C992   1.403       .  A
O984       H1000   0.993       .  S
O986        H997   0.991       .  S
C988        C989   1.407       .  A
C988        O993   1.373       .  S
C989        C990   1.405       .  A
C989        H994   1.083       .  S
C990        C991   1.413       .  A
C991        C992   1.397       .  A
C991        O995   1.372       .  S
C992        H996   1.083       .  S
O993        H998   0.990       .  S
O995        H999   0.993       .  S
C1001      C1002   1.396       .  A
C1001      C1006   1.393       .  A
C1001      H1011   1.084       .  S
C1002      C1007   1.466       .  S
C1002      C1003   1.407       .  A
C1003      C1004   1.400       .  A
C1003      O1008   1.371       .  S
C1004      C1005   1.400       .  A
C1004      H1009   1.083       .  S
C1005      C1006   1.411       .  A
C1006      O1010   1.372       .  S
C1007      C1012   1.403       .  A
C1007      C1016   1.399       .  A
O1008      H1024   0.993       .  S
O1010      H1021   0.994       .  S
C1012      C1013   1.394       .  A
C1012      O1017   1.372       .  S
C1013      C1014   1.406       .  A
C1013      H1018   1.083       .  S
C1014      C1015   1.415       .  A
C1015      C1016   1.398       .  A
C1015      O1019   1.372       .  S
C1016      H1020   1.084       .  S
O1017      H1022   0.991       .  S
O1019      H1023   0.992       .  S
C1025      C1026   1.402       .  A
C1025      C1030   1.402       .  A
C1025      H1035   1.084       .  S
C1026      C1031   1.493       .  S
C1026      C1027   1.413       .  A
C1027      C1028   1.409       .  A
C1027      O1032   1.372       .  S
C1028      C1029   1.404       .  A
C1028      H1033   1.084       .  S
C1029      C1030   1.412       .  A
C1030      O1034   1.372       .  S
C1031      C1036   1.406       .  A
C1031      C1040   1.411       .  A
O1032      H1048   0.992       .  S
O1034      H1045   0.991       .  S
C1036      C1037   1.399       .  A
C1036      O1041   1.372       .  S
C1037      C1038   1.410       .  A
C1037      H1042   1.084       .  S
C1038      C1039   1.409       .  A
C1039      C1040   1.411       .  A
C1039      O1043   1.371       .  S
C1040      H1044   1.083       .  S
O1041      H1046   0.991       .  S
O1043      H1047   0.993       .  S
C1049      C1050   1.405       .  A
C1049      C1054   1.407       .  A
C1049      H1059   1.083       .  S
C1050      C1055   1.495       .  S
C1050      C1051   1.407   1_545  A
C1051      C1052   1.405       .  A
C1051      O1056   1.371       .  S
C1052      C1053   1.411       .  A
C1052      H1057   1.083       .  S
C1053      C1054   1.415   1_565  A
C1054      O1058   1.371       .  S
C1055      C1060   1.407       .  A
C1055      C1064   1.405   1_545  A
O1056      H1072   0.990       .  S
O1058      H1069   0.988       .  S
C1060      C1061   1.406       .  A
C1060      O1065   1.372       .  S
C1061      C1062   1.412       .  A
C1061      H1066   1.083       .  S
C1062      C1063   1.414       .  A
C1063      C1064   1.409   1_545  A
C1063      O1067   1.370   1_545  S
C1064      H1068   1.084       .  S
O1065      H1070   0.991       .  S
O1067      H1071   0.992       .  S
C1073      C1074   1.406       .  A
C1073      C1078   1.407   1_565  A
C1073      H1083   1.083       .  S
C1074      C1079   1.483       .  S
C1074      C1075   1.408       .  A
C1075      C1076   1.395       .  A
C1075      O1080   1.374       .  S
C1076      C1077   1.399   1_565  A
C1076      H1081   1.081       .  S
C1077      C1078   1.409       .  A
C1078      O1082   1.371       .  S
C1079      C1084   1.409       .  A
C1079      C1088   1.401       .  A
O1080      H1096   0.991       .  S
O1082      H1093   0.989       .  S
C1084      C1085   1.396       .  A
C1084      O1089   1.372       .  S
C1085      C1086   1.403       .  A
C1085      H1090   1.084       .  S
C1086      C1087   1.414       .  A
C1087      C1088   1.404       .  A
C1087      O1091   1.371       .  S
C1088      H1092   1.083       .  S
O1089      H1094   0.991       .  S
O1091      H1095   0.992       .  S
C1097      C1098   1.404       .  A
C1097      C1102   1.400       .  A
C1097      H1107   1.083       .  S
C1098      C1103   1.493       .  S
C1098      C1099   1.411       .  A
C1099      C1100   1.409       .  A
C1099      O1104   1.371       .  S
C1100      C1101   1.408       .  A
C1100      H1105   1.084       .  S
C1101      C1102   1.412       .  A
C1102      O1106   1.372       .  S
C1103      C1108   1.410       .  A
C1103      C1112   1.406       .  A
O1104      H1120   0.992       .  S
O1106      H1117   0.992       .  S
C1108      C1109   1.401       .  A
C1108      O1113   1.372       .  S
C1109      C1110   1.405       .  A
C1109      H1114   1.084       .  S
C1110      C1111   1.413       .  A
C1111      C1112   1.408       .  A
C1111      O1115   1.371       .  S
C1112      H1116   1.083       .  S
O1113      H1118   0.991       .  S
O1115      H1119   0.991       .  S
C1121      C1122   1.403       .  A
C1121      C1126   1.399       .  A
C1121      H1131   1.084       .  S
C1122      C1127   1.487       .  S
C1122      C1123   1.409       .  A
C1123      C1124   1.408       .  A
C1123      O1128   1.371       .  S
C1124      C1125   1.406       .  A
C1124      H1129   1.084       .  S
C1125      C1126   1.409       .  A
C1126      O1130   1.372       .  S
C1127      C1132   1.412       .  A
C1127      C1136   1.398       .  A
O1128      H1144   0.992       .  S
O1130      H1141   0.992       .  S
C1132      C1133   1.411       .  A
C1132      O1137   1.371       .  S
C1133      C1134   1.405       .  A
C1133      H1138   1.083       .  S
C1134      C1135   1.416       .  A
C1135      C1136   1.396       .  A
C1135      O1139   1.373       .  S
C1136      H1140   1.084       .  S
O1137      H1142   0.992       .  S
O1139      H1143   0.993       .  S
C1145      C1146   1.405       .  A
C1145      C1150   1.398       .  A
C1145      H1155   1.083       .  S
C1146      C1151   1.486       .  S
C1146      C1147   1.408       .  A
C1147      C1148   1.403       .  A
C1147      O1152   1.371       .  S
C1148      C1149   1.407       .  A
C1148      H1153   1.084       .  S
C1149      C1150   1.407       .  A
C1150      O1154   1.372       .  S
C1151      C1156   1.407       .  A
C1151      C1160   1.410       .  A
O1152      H1168   0.992       .  S
O1154      H1165   0.992       .  S
C1156      C1157   1.396       .  A
C1156      O1161   1.373       .  S
C1157      C1158   1.403   1_545  A
C1157      H1162   1.085   1_545  S
C1158      C1159   1.404   1_565  A
C1159      C1160   1.408       .  A
C1159      O1163   1.372       .  S
C1160      H1164   1.083       .  S
O1161      H1166   0.991       .  S
O1163      H1167   0.990       .  S
C1169      C1170   1.405       .  A
C1169      C1174   1.408       .  A
C1169      H1179   1.083       .  S
C1170      C1175   1.489       .  S
C1170      C1171   1.408       .  A
C1171      C1172   1.399       .  A
C1171      O1176   1.372       .  S
C1172      C1173   1.407       .  A
C1172      H1177   1.084       .  S
C1173      C1174   1.414       .  A
C1174      O1178   1.371       .  S
C1175      C1180   1.407       .  A
C1175      C1184   1.403       .  A
O1176      H1192   0.992       .  S
O1178      H1189   0.992       .  S
C1180      C1181   1.406       .  A
C1180      O1185   1.371       .  S
C1181      C1182   1.411       .  A
C1181      H1186   1.083       .  S
C1182      C1183   1.414       .  A
C1183      C1184   1.401       .  A
C1183      O1187   1.371       .  S
C1184      H1188   1.084       .  S
O1185      H1190   0.991       .  S
O1187      H1191   0.991       .  S
C1193      C1194   1.402       .  A
C1193      C1198   1.398       .  A
C1193      H1203   1.083       .  S
C1194      C1199   1.494       .  S
C1194      C1195   1.415       .  A
C1195      C1196   1.406       .  A
C1195      O1200   1.371       .  S
C1196      C1197   1.403       .  A
C1196      H1201   1.083       .  S
C1197      C1198   1.414       .  A
C1198      O1202   1.373       .  S
C1199      C1204   1.414       .  A
C1199      C1208   1.400       .  A
O1200      H1216   0.990       .  S
O1202      H1213   0.992       .  S
C1204      C1205   1.409       .  A
C1204      O1209   1.373       .  S
C1205      C1206   1.406       .  A
C1205      H1210   1.083       .  S
C1206      C1207   1.419       .  A
C1207      C1208   1.397       .  A
C1207      O1211   1.373       .  S
C1208      H1212   1.083       .  S
O1209      H1214   0.992       .  S
O1211      H1215   0.993       .  S
C1217      C1218   1.400       .  A
C1217      C1222   1.395       .  A
C1217      H1227   1.084       .  S
C1218      C1223   1.473       .  S
C1218      C1219   1.404       .  A
C1219      C1220   1.399       .  A
C1219      O1224   1.371       .  S
C1220      C1221   1.408       .  A
C1220      H1225   1.084       .  S
C1221      C1222   1.413       .  A
C1222      O1226   1.372       .  S
C1223      C1228   1.402       .  A
C1223      C1232   1.404       .  A
O1224      H1240   0.992       .  S
O1226      H1237   0.993       .  S
C1228      C1229   1.391       .  A
C1228      O1233   1.373       .  S
C1229      C1230   1.408       .  A
C1229      H1234   1.084       .  S
C1230      C1231   1.410       .  A
C1231      C1232   1.403       .  A
C1231      O1235   1.371       .  S
C1232      H1236   1.083       .  S
O1233      H1238   0.993       .  S
O1235      H1239   0.992       .  S
C1241      C1242   1.396       .  A
C1241      C1246   1.394       .  A
C1241      H1251   1.084       .  S
C1242      C1247   1.486       .  S
C1242      C1243   1.411       .  A
C1243      C1244   1.412       .  A
C1243      O1248   1.371       .  S
C1244      C1245   1.407       .  A
C1244      H1249   1.083       .  S
C1245      C1246   1.418       .  A
C1246      O1250   1.372       .  S
C1247      C1252   1.409       .  A
C1247      C1256   1.399       .  A
O1248      H1264   0.992       .  S
O1250      H1261   0.992       .  S
C1252      C1253   1.410       .  A
C1252      O1257   1.371       .  S
C1253      C1254   1.408       .  A
C1253      H1258   1.083       .  S
C1254      C1255   1.416       .  A
C1255      C1256   1.398       .  A
C1255      O1259   1.373       .  S
C1256      H1260   1.084       .  S
O1257      H1262   0.991       .  S
O1259      H1263   0.993       .  S
C1265      C1266   1.401       .  A
C1265      C1270   1.401       .  A
C1265      H1275   1.084       .  S
C1266      C1271   1.481       .  S
C1266      C1267   1.409       .  A
C1267      C1268   1.400       .  A
C1267      O1272   1.373       .  S
C1268      C1269   1.402       .  A
C1268      H1273   1.084       .  S
C1269      C1270   1.411       .  A
C1270      O1274   1.371       .  S
C1271      C1276   1.408       .  A
C1271      C1280   1.405       .  A
O1272      H1288   0.992       .  S
O1274      H1285   0.992       .  S
C1276      C1277   1.395       .  A
C1276      O1281   1.372       .  S
C1277      C1278   1.403       .  A
C1277      H1282   1.084       .  S
C1278      C1279   1.408       .  A
C1279      C1280   1.405       .  A
C1279      O1283   1.371       .  S
C1280      H1284   1.083       .  S
O1281      H1286   0.991       .  S
O1283      H1287   0.991       .  S
C1289      C1290   1.404       .  A
C1289      C1294   1.405   1_565  A
C1289      H1299   1.083       .  S
C1290      C1295   1.482       .  S
C1290      C1291   1.405       .  A
C1291      C1292   1.394       .  A
C1291      O1296   1.372       .  S
C1292      C1293   1.409   1_565  A
C1292      H1297   1.083       .  S
C1293      C1294   1.413       .  A
C1294      O1298   1.371       .  S
C1295      C1300   1.405       .  A
C1295      C1304   1.404       .  A
O1296      H1312   0.992       .  S
O1298      H1309   0.992       .  S
C1300      C1301   1.400       .  A
C1300      O1305   1.372       .  S
C1301      C1302   1.409       .  A
C1301      H1306   1.083       .  S
C1302      C1303   1.412       .  A
C1303      C1304   1.401       .  A
C1303      O1307   1.371       .  S
C1304      H1308   1.084       .  S
O1305      H1310   0.992       .  S
O1307      H1311   0.992       .  S
C1313      C1314   1.413       .  A
C1313      C1318   1.411       .  A
C1313      H1323   1.083   1_545  S
C1314      C1319   1.502       .  S
C1314      C1315   1.409       .  A
C1315      C1316   1.398       .  A
C1315      O1320   1.372       .  S
C1316      C1317   1.410       .  A
C1316      H1321   1.084       .  S
C1317      C1318   1.410       .  A
C1318      O1322   1.371       .  S
C1319      C1324   1.408   1_545  A
C1319      C1328   1.412       .  A
O1320      H1336   0.994       .  S
O1322      H1333   0.990       .  S
C1324      C1325   1.400       .  A
C1324      O1329   1.372       .  S
C1325      C1326   1.411       .  A
C1325      H1330   1.083       .  S
C1326      C1327   1.410       .  A
C1327      C1328   1.410   1_565  A
C1327      O1331   1.371   1_565  S
C1328      H1332   1.083       .  S
O1329      H1334   0.992       .  S
O1331      H1335   0.992       .  S
C1337      C1338   1.406       .  A
C1337      C1342   1.408       .  A
C1337      H1347   1.083       .  S
C1338      C1343   1.495   1_655  S
C1338      C1339   1.410       .  A
C1339      C1340   1.399       .  A
C1339      O1344   1.372       .  S
C1340      C1341   1.407       .  A
C1340      H1345   1.083       .  S
C1341      C1342   1.415       .  A
C1342      O1346   1.371       .  S
C1343      C1348   1.411       .  A
C1343      C1352   1.406       .  A
O1344      H1360   0.991       .  S
O1346      H1357   0.992       .  S
C1348      C1349   1.404       .  A
C1348      O1353   1.372       .  S
C1349      C1350   1.408       .  A
C1349      H1354   1.083       .  S
C1350      C1351   1.411       .  A
C1351      C1352   1.403       .  A
C1351      O1355   1.371       .  S
C1352      H1356   1.083       .  S
O1353      H1358   0.991       .  S
O1355      H1359   0.993       .  S
C1361      C1362   1.398       .  A
C1361      C1366   1.395       .  A
C1361      H1371   1.084       .  S
C1362      C1367   1.483       .  S
C1362      C1363   1.410       .  A
C1363      C1364   1.408       .  A
C1363      O1368   1.371       .  S
C1364      C1365   1.405       .  A
C1364      H1369   1.083       .  S
C1365      C1366   1.415       .  A
C1366      O1370   1.373       .  S
C1367      C1372   1.406       .  A
C1367      C1376   1.407       .  A
O1368      H1384   0.993       .  S
O1370      H1381   0.996       .  S
C1372      C1373   1.394       .  A
C1372      O1377   1.372       .  S
C1373      C1374   1.405       .  A
C1373      H1378   1.084       .  S
C1374      C1375   1.409       .  A
C1375      C1376   1.408       .  A
C1375      O1379   1.371       .  S
C1376      H1380   1.083       .  S
O1377      H1382   0.992       .  S
O1379      H1383   0.992       .  S
C1385      C1386   1.399       .  A
C1385      C1390   1.398       .  A
C1385      H1395   1.084       .  S
C1386      C1391   1.489       .  S
C1386      C1387   1.411       .  A
C1387      C1388   1.408       .  A
C1387      O1392   1.372       .  S
C1388      C1389   1.408       .  A
C1388      H1393   1.083       .  S
C1389      C1390   1.418       .  A
C1390      O1394   1.372       .  S
C1391      C1396   1.411       .  A
C1391      C1400   1.401       .  A
O1392      H1408   0.992       .  S
O1394      H1405   0.991       .  S
C1396      C1397   1.403       .  A
C1396      O1401   1.372       .  S
C1397      C1398   1.405       .  A
C1397      H1402   1.083       .  S
C1398      C1399   1.418       .  A
C1399      C1400   1.404       .  A
C1399      O1403   1.372       .  S
C1400      H1404   1.084       .  S
O1401      H1406   0.991       .  S
O1403      H1407   0.991       .  S
C1409      C1410   1.403       .  A
C1409      C1414   1.403       .  A
C1409      H1419   1.083       .  S
C1410      C1415   1.484       .  S
C1410      C1411   1.410       .  A
C1411      C1412   1.397       .  A
C1411      O1416   1.372       .  S
C1412      C1413   1.403       .  A
C1412      H1417   1.084       .  S
C1413      C1414   1.413       .  A
C1414      O1418   1.371       .  S
C1415      C1420   1.413       .  A
C1415      C1424   1.400       .  A
O1416      H1432   0.992       .  S
O1418      H1429   0.993       .  S
C1420      C1421   1.407       .  A
C1420      O1425   1.371       .  S
C1421      C1422   1.402       .  A
C1421      H1426   1.083       .  S
C1422      C1423   1.410       .  A
C1423      C1424   1.395       .  A
C1423      O1427   1.372       .  S
C1424      H1428   1.084       .  S
O1425      H1430   0.991       .  S
O1427      H1431   1.000       .  S
C1433      C1434   1.404       .  A
C1433      C1438   1.396       .  A
C1433      H1443   1.083       .  S
C1434      C1439   1.491       .  S
C1434      C1435   1.411       .  A
C1435      C1436   1.406       .  A
C1435      O1440   1.371       .  S
C1436      C1437   1.408       .  A
C1436      H1441   1.083   1_545  S
C1437      C1438   1.411       .  A
C1438      O1442   1.372       .  S
C1439      C1444   1.411       .  A
C1439      C1448   1.406       .  A
O1440      H1456   0.992       .  S
O1442      H1453   0.992       .  S
C1444      C1445   1.397       .  A
C1444      O1449   1.373       .  S
C1445      C1446   1.404       .  A
C1445      H1450   1.084       .  S
C1446      C1447   1.415       .  A
C1447      C1448   1.405       .  A
C1447      O1451   1.372       .  S
C1448      H1452   1.083       .  S
O1449      H1454   0.991       .  S
O1451      H1455   0.991       .  S
C1457      C1458   1.411       .  A
C1457      C1462   1.411       .  A
C1457      H1467   1.083       .  S
C1458      C1463   1.500       .  S
C1458      C1459   1.411       .  A
C1459      C1460   1.395       .  A
C1459      O1464   1.372       .  S
C1460      C1461   1.407       .  A
C1460      H1465   1.083       .  S
C1461      C1462   1.412       .  A
C1462      O1466   1.371       .  S
C1463      C1468   1.411       .  A
C1463      C1472   1.409       .  A
O1464      H1480   0.991       .  S
O1466      H1477   0.993       .  S
C1468      C1469   1.403       .  A
C1468      O1473   1.371       .  S
C1469      C1470   1.407       .  A
C1469      H1474   1.083       .  S
C1470      C1471   1.411       .  A
C1471      C1472   1.404       .  A
C1471      O1475   1.372       .  S
C1472      H1476   1.083       .  S
O1473      H1478   0.993       .  S
O1475      H1479   0.994       .  S
C1481      C1482   1.397       .  A
C1481      C1486   1.394       .  A
C1481      H1491   1.084       .  S
C1482      C1487   1.469       .  S
C1482      C1483   1.405       .  A
C1483      C1484   1.402       .  A
C1483      O1488   1.371       .  S
C1484      C1485   1.406       .  A
C1484      H1489   1.083       .  S
C1485      C1486   1.414       .  A
C1486      O1490   1.372       .  S
C1487      C1492   1.401       .  A
C1487      C1496   1.403       .  A
O1488      H1504   0.991       .  S
O1490      H1501   0.991       .  S
C1492      C1493   1.392       .  A
C1492      O1497   1.372       .  S
C1493      C1494   1.406       .  A
C1493      H1498   1.084       .  S
C1494      C1495   1.408       .  A
C1495      C1496   1.404       .  A
C1495      O1499   1.371       .  S
C1496      H1500   1.083       .  S
O1497      H1502   0.991       .  S
O1499      H1503   0.991       .  S
