geometry optimzed in LAMMPS
_audit_creation_date              2020-12-01 
_audit_creation_method            'lammps2cif' 
_symmetry_space_group_name_H-M    'P1' 
_symmetry_Int_Tables_number       1 
_symmetry_cell_setting            triclinic 
loop_ 
_symmetry_equiv_pos_as_xyz 
  x,y,z 
_cell_length_a                    74.94026986 
_cell_length_b                    39.69440958398386 
_cell_length_c                    75.14012434066888 
_cell_angle_alpha                 89.92652826382383 
_cell_angle_beta                  90.12419697306211 
_cell_angle_gamma                 89.90360808226079 
loop_ 
_atom_site_label 
_atom_site_type_symbol 
_atom_site_fract_x 
_atom_site_fract_y 
_atom_site_fract_z 
_atom_site_charge 
Zr1        Zr  0.60931582  0.25043225  0.85675465     2.17500
O2          O  0.58678479  0.23313464  0.83510873    -0.51800
O3          O  0.61369858  0.19111540  0.86474836    -0.75000
O4          O  0.62158564  0.23730980  0.82723880    -0.81700
O5          O  0.57180996  0.27725917  0.88817937    -0.83500
O6          O  0.64859347  0.26263751  0.82460748    -0.79100
O7          O  0.57772582  0.24521340  0.86384768    -0.90700
O8          O  0.63270768  0.18867717  0.88815391    -0.76700
O9          O  0.63999724  0.24427029  0.86448104    -0.86200
O10         O  0.61041710  0.25017028  0.88853425    -0.85900
O11         O  0.62364758  0.29911225  0.84404056    -0.72600
O12         O  0.59700814  0.30321430  0.86660768    -0.84800
Zr13       Zr  0.64463440  0.34543426  0.89356263     2.26400
Zr14       Zr  0.65443848  0.29280726  0.85215739     2.06300
Zr15       Zr  0.59909710  0.30339852  0.89834566     2.10000
Zr16       Zr  0.64101147  0.24494085  0.89621376     1.78800
O17         O  0.57695766  0.34791802  0.90166419    -0.93600
O18         O  0.66930338  0.21529167  0.89302154    -0.41400
O19         O  0.62978201  0.29768470  0.90640628    -0.78000
O20         O  0.65652618  0.29180029  0.88401562    -0.96700
O21         O  0.64288919  0.34599454  0.86187796    -0.90000
O22         O  0.61376843  0.35186934  0.88639815    -0.92900
C23         C  0.62266293  0.17472281  0.87654158     1.00900
C24         C  0.56708692  0.25721761  0.87564979     1.13800
C25         C  0.63569235  0.24492300  0.81835135     1.04600
O26         O  0.67781297  0.25073762  0.84846724    -0.95000
O27         O  0.68207277  0.31966052  0.86135771    -0.90800
O28         O  0.67669151  0.34642974  0.88761058    -0.83900
C29         C  0.68712841  0.33594818  0.87522935     1.11200
O30         O  0.59219067  0.34695802  0.82909428    -0.97000
Zr31       Zr  0.61202765  0.35120026  0.85474073     1.88900
O32         O  0.63969257  0.40475209  0.88575303    -0.73600
O33         O  0.66514217  0.32772482  0.82773740    -0.52900
O34         O  0.62455067  0.37786564  0.82835365    -0.97600
O35         O  0.58367125  0.37949981  0.86030936    -0.54800
O36         O  0.62068892  0.40734286  0.86231668    -0.74200
C37         C  0.63063144  0.42112670  0.87403887     0.98200
O38         O  0.66542847  0.37472178  0.91323777    -0.63000
O39         O  0.58627019  0.27170022  0.92303542    -0.57800
O40         O  0.63421678  0.34997101  0.92443705    -0.94500
O41         O  0.60674391  0.32702104  0.92704082    -0.92900
O42         O  0.62749992  0.22088412  0.92277360    -0.93200
O43         O  0.66017569  0.25016060  0.92226355    -0.92000
C44         C  0.62034660  0.34210150  0.93362272     1.17000
H45         H  0.60346087  0.23184872  0.89337618     0.33000
H46         H  0.66863264  0.28807511  0.88792140     0.43800
H47         H  0.60890398  0.37225380  0.89145690     0.37400
H48         H  0.62210158  0.30000386  0.83130035     0.33800
H49         H  0.66761066  0.19374471  0.89945407     0.25600
H50         H  0.67349707  0.31307012  0.82109010     0.31600
H51         H  0.63693890  0.38380560  0.83169556     0.37500
H52         H  0.61942477  0.23872599  0.92723057     0.31900
H53         H  0.57469479  0.28280323  0.92549350     0.30800
H54         H  0.57037590  0.34200041  0.91263871     0.32500
H55         H  0.58576501  0.39389049  0.87085682     0.31500
H56         H  0.66320955  0.27441416  0.92278623     0.35500
H57         H  0.65867766  0.39384394  0.91836178     0.28200
H58         H  0.59055761  0.21067445  0.83078374     0.32400
H59         H  0.58940553  0.37047583  0.82564057     0.35300
H60         H  0.58303720  0.24942766  0.91808650     0.27900
H61         H  0.66771196  0.35927176  0.92335820     0.40700
H62         H  0.68444881  0.25089490  0.85987290     0.30800
H63         H  0.66975486  0.20878354  0.88032017     0.38400
H64         H  0.57562086  0.36150513  0.86460489     0.30300
H65         H  0.65472709  0.33035457  0.81972233     0.30300
H66         H  0.58814236  0.24845532  0.82478647     0.30600
Zr67       Zr  0.60745722  0.75131106  0.85872764     2.17500
O68         O  0.58572069  0.72553116  0.83868432    -0.51800
O69         O  0.61521589  0.69194397  0.86310599    -0.75000
O70         O  0.61721938  0.74882620  0.82752275    -0.81700
O71         O  0.57239556  0.76209656  0.89566428    -0.83500
O72         O  0.64237868  0.77966870  0.82433094    -0.79100
O73         O  0.57634864  0.74429920  0.86718345    -0.90700
O74         O  0.63613587  0.68769067  0.88481350    -0.76700
O75         O  0.63895060  0.75130070  0.86251157    -0.86200
O76         O  0.61265965  0.74311409  0.88980589    -0.85900
O77         O  0.61683027  0.80576170  0.84818300    -0.72600
O78         O  0.59341498  0.79754846  0.87391680    -0.84800
Zr79       Zr  0.64122094  0.84419216  0.89824512     2.26400
Zr80       Zr  0.64851001  0.80584940  0.85269095     2.06300
Zr81       Zr  0.59951823  0.79002474  0.90488098     2.10000
Zr82       Zr  0.64411598  0.74376854  0.89356837     1.78800
O83         O  0.57406259  0.82276128  0.91522647    -0.93600
O84         O  0.67137954  0.71966463  0.88134445    -0.41400
O85         O  0.63111241  0.79036682  0.90891216    -0.78000
O86         O  0.65486166  0.79683749  0.88362796    -0.96700
O87         O  0.63509894  0.85270601  0.86747313    -0.90000
O88         O  0.60945096  0.84417119  0.89504191    -0.92900
C89         C  0.62556240  0.67477866  0.87333813     1.00900
C90         C  0.56683334  0.74849305  0.88121647     1.13800
C91         C  0.63010038  0.76064859  0.81807829     1.04600
O92         O  0.67481504  0.77547027  0.84252212    -0.95000
O93         O  0.67571629  0.83509938  0.86033010    -0.90800
O94         O  0.67200134  0.85537072  0.88836822    -0.83900
C95         C  0.68151074  0.84967372  0.87440351     1.11200
O96         O  0.57892633  0.84557600  0.84296313    -0.97000
Zr97       Zr  0.60347938  0.85134880  0.86411548     1.88900
O98         O  0.63405176  0.90359204  0.89326888    -0.73600
O99         O  0.65142291  0.85188456  0.83144921    -0.52900
O100        O  0.61012234  0.88232091  0.83691307    -0.97600
O101        O  0.57542045  0.87443448  0.87518643    -0.54800
O102        O  0.61125670  0.90734869  0.87345391    -0.74200
C103        C  0.62285183  0.92053381  0.88383931     0.98200
O104        O  0.66109461  0.86231027  0.92215340    -0.63000
O105        O  0.59458603  0.74610976  0.92708059    -0.57800
O106        O  0.63234400  0.84675323  0.92950548    -0.94500
O107        O  0.60797169  0.81360979  0.93342046    -0.92900
O108        O  0.63792995  0.71388407  0.92119945    -0.93200
O109        O  0.66885872  0.74679323  0.91457184    -0.92000
C110        C  0.62029537  0.83310151  0.93931262     1.17000
H111        H  0.60744847  0.72228953  0.89393397     0.33000
H112        H  0.66752135  0.79544606  0.88582040     0.43800
H113        H  0.60408273  0.86186797  0.90204142     0.37400
H114        H  0.61376977  0.80917103  0.83582955     0.33800
H115        H  0.67273853  0.69767631  0.88744213     0.25600
H116        H  0.66227537  0.84638073  0.82453923     0.31600
H117        H  0.60398599  0.90427429  0.83828016     0.37500
H118        H  0.63078569  0.72987996  0.92835647     0.31900
H119        H  0.58390316  0.75359106  0.93372862     0.30800
H120        H  0.56910054  0.80951050  0.92522794     0.32500
H121        H  0.57876361  0.88959373  0.88509234     0.31500
H122        H  0.66899177  0.77056596  0.91855337     0.35500
H123        H  0.67131579  0.84645199  0.92199104     0.28200
H124        H  0.59204395  0.70683129  0.83266347     0.32400
H125        H  0.57497487  0.86880982  0.84017587     0.35300
H126        H  0.59049505  0.72610652  0.92037380     0.27900
H127        H  0.66604555  0.88426040  0.91832644     0.40700
H128        H  0.67871321  0.78770147  0.83171810     0.30800
H129        H  0.66835696  0.71374135  0.86890275     0.38400
H130        H  0.56943785  0.85516421  0.88103496     0.30300
H131        H  0.64146249  0.84871800  0.82294334     0.30300
H132        H  0.58334704  0.74238791  0.82923667     0.30600
Zr133      Zr  0.61074058  0.19551264  0.64601023     2.17500
O134        O  0.58811921  0.21792683  0.66614500    -0.51800
O135        O  0.61584307  0.25477619  0.63910557    -0.75000
O136        O  0.62161050  0.20448598  0.67660194    -0.81700
O137        O  0.57417165  0.17220324  0.61239238    -0.83500
O138        O  0.64825803  0.17802183  0.67974723    -0.79100
O139        O  0.57944986  0.20156637  0.63785378    -0.90700
O140        O  0.63699938  0.25835825  0.61771820    -0.76700
O141        O  0.64183716  0.20042081  0.64004039    -0.86200
O142        O  0.61356548  0.19856179  0.61438050    -0.85900
O143        O  0.62335466  0.14465690  0.65830134    -0.72600
O144        O  0.59799356  0.14472468  0.63408166    -0.84800
Zr145      Zr  0.64624964  0.10169459  0.60863427     2.26400
Zr146      Zr  0.65453307  0.14966589  0.65182308     2.06300
Zr147      Zr  0.60180047  0.14722196  0.60250676     2.10000
Zr148      Zr  0.64459025  0.20229481  0.60841830     1.78800
O149        O  0.57871099  0.10559988  0.59652121    -0.93600
O150        O  0.67343508  0.22908415  0.61296886    -0.41400
O151        O  0.63289706  0.15146450  0.59638862    -0.78000
O152        O  0.65881089  0.15313349  0.62018393    -0.96700
O153        O  0.64260607  0.09826349  0.64013983    -0.90000
O154        O  0.61498059  0.09694850  0.61400972    -0.92900
C155        C  0.62587943  0.27164491  0.62853391     1.00900
C156        C  0.56918316  0.19089071  0.62537597     1.13800
C157        C  0.63533881  0.19579119  0.68588863     1.04600
O158        O  0.67883535  0.18924217  0.65671882    -0.95000
O159        O  0.68134522  0.11903486  0.64460852    -0.90800
O160        O  0.67732459  0.09289623  0.61814294    -0.83900
C161        C  0.68702998  0.10118268  0.63159533     1.11200
O162        O  0.59005625  0.09855962  0.66988449    -0.97000
Zr163      Zr  0.61134974  0.09455476  0.64547491     1.88900
O164        O  0.64003312  0.04257080  0.61465043    -0.73600
O165        O  0.66415586  0.11330767  0.67618018    -0.52900
O166        O  0.62129713  0.06446388  0.67200838    -0.97600
O167        O  0.58270124  0.06961286  0.63754784    -0.54800
O168        O  0.61903376  0.03856172  0.63622946    -0.74200
C169        C  0.62974047  0.02558791  0.62490918     0.98200
O170        O  0.66534436  0.08042573  0.58488630    -0.63000
O171        O  0.59192801  0.18433022  0.57853197    -0.57800
O172        O  0.63669419  0.09627274  0.57747481    -0.94500
O173        O  0.61017163  0.12325016  0.57395628    -0.92900
O174        O  0.63187508  0.22894456  0.58204204    -0.93200
O175        O  0.66394798  0.19875612  0.58250780    -0.92000
C176        C  0.62340166  0.10613914  0.56787904     1.17000
H177        H  0.60716963  0.21777079  0.60966814     0.33000
H178        H  0.67130111  0.15509985  0.61726246     0.43800
H179        H  0.61002078  0.07749410  0.60810040     0.37400
H180        H  0.62121356  0.14274015  0.67091732     0.33800
H181        H  0.67282167  0.25011999  0.60588900     0.25600
H182        H  0.67264510  0.12713800  0.68315165     0.31600
H183        H  0.63406708  0.05951691  0.66988696     0.37500
H184        H  0.63709890  0.25183636  0.58178790     0.31900
H185        H  0.58135440  0.17298223  0.57339024     0.30800
H186        H  0.57495560  0.10999073  0.58409276     0.32500
H187        H  0.58484630  0.05728571  0.62630936     0.31500
H188        H  0.66642421  0.17438219  0.58115128     0.35500
H189        H  0.67583547  0.09554496  0.58445815     0.28200
H190        H  0.59313062  0.23904498  0.67105057     0.32400
H191        H  0.58654610  0.07508672  0.67264337     0.35300
H192        H  0.58705685  0.20461590  0.58444846     0.27900
H193        H  0.66996405  0.05848813  0.58917157     0.40700
H194        H  0.68619271  0.18783163  0.64581696     0.30800
H195        H  0.67321025  0.23676244  0.62549421     0.38400
H196        H  0.57508166  0.08893493  0.63406297     0.30300
H197        H  0.65356256  0.11103141  0.68393588     0.30300
H198        H  0.58757782  0.20210405  0.67632888     0.30600
Zr199      Zr  0.61133110  0.69745082  0.64736465     2.17500
O200        O  0.58880323  0.71928637  0.66782511    -0.51800
O201        O  0.61830731  0.75650918  0.64098856    -0.75000
O202        O  0.62194417  0.70616681  0.67780904    -0.81700
O203        O  0.57574865  0.68000030  0.61172449    -0.83500
O204        O  0.64654379  0.67414967  0.68279335    -0.79100
O205        O  0.58040973  0.70545816  0.63836303    -0.90700
O206        O  0.63968684  0.75825578  0.61974616    -0.76700
O207        O  0.64279447  0.69788535  0.64330404    -0.86200
O208        O  0.61592200  0.70183015  0.61604166    -0.85900
O209        O  0.62131294  0.64456913  0.65972643    -0.72600
O210        O  0.59759410  0.64893559  0.63412023    -0.84800
Zr211      Zr  0.64526364  0.60080842  0.61093588     2.26400
Zr212      Zr  0.65299211  0.64506562  0.65509319     2.06300
Zr213      Zr  0.60309980  0.65269139  0.60290126     2.10000
Zr214      Zr  0.64728621  0.70151051  0.61195288     1.78800
O215        O  0.57846084  0.61673891  0.59369447    -0.93600
O216        O  0.67529019  0.72764359  0.62088633    -0.41400
O217        O  0.63459535  0.65276456  0.59840262    -0.78000
O218        O  0.65880489  0.65028083  0.62376505    -0.96700
O219        O  0.63979861  0.59586294  0.64209883    -0.90000
O220        O  0.61365568  0.60021544  0.61443831    -0.92900
C221        C  0.62879438  0.77248975  0.63042603     1.00900
C222        C  0.57045286  0.69728494  0.62510514     1.13800
C223        C  0.63445868  0.69491381  0.68791906     1.04600
O224        O  0.67860957  0.67840204  0.66437623    -0.95000
O225        O  0.68030113  0.61571266  0.64766055    -0.90800
O226        O  0.67630255  0.59222293  0.62035364    -0.83900
C227        C  0.68593836  0.59963252  0.63398779     1.11200
O228        O  0.58408664  0.60229125  0.66714298    -0.97000
Zr229      Zr  0.60816586  0.59654867  0.64554759     1.88900
O230        O  0.63733115  0.54217610  0.61672922    -0.73600
O231        O  0.65862023  0.60287382  0.67798810    -0.52900
O232        O  0.61598306  0.56541358  0.67244564    -0.97600
O233        O  0.57941480  0.57543309  0.63514246    -0.54800
O234        O  0.61430187  0.53974138  0.63613130    -0.74200
C235        C  0.62569341  0.52584101  0.62579985     0.98200
O236        O  0.66378006  0.57375338  0.58837702    -0.63000
O237        O  0.59691457  0.69460946  0.57998148    -0.57800
O238        O  0.63695332  0.59767230  0.57949887    -0.94500
O239        O  0.61123762  0.62683131  0.57491698    -0.92900
O240        O  0.63835060  0.72833555  0.58416390    -0.93200
O241        O  0.67035117  0.69629073  0.58935405    -0.92000
C242        C  0.62423018  0.60846529  0.56947994     1.17000
H243        H  0.61042738  0.72187119  0.61118297     0.33000
H244        H  0.67139158  0.65197938  0.62130148     0.43800
H245        H  0.60834271  0.58170758  0.60799727     0.37400
H246        H  0.61842191  0.64297961  0.67220913     0.33800
H247        H  0.67548763  0.74953732  0.61455527     0.25600
H248        H  0.66701009  0.61387900  0.68634943     0.31600
H249        H  0.61514019  0.58201602  0.68223026     0.37500
H250        H  0.64606639  0.74847541  0.58318156     0.31900
H251        H  0.60770051  0.69477577  0.57239871     0.30800
H252        H  0.57070600  0.63144013  0.58633926     0.32500
H253        H  0.58221664  0.55929494  0.62550832     0.31500
H254        H  0.66844031  0.67368047  0.58413850     0.35500
H255        H  0.67400090  0.58908275  0.58637685     0.28200
H256        H  0.59381142  0.74018739  0.67298919     0.32400
H257        H  0.58125506  0.57906431  0.67103389     0.35300
H258        H  0.58756396  0.68427404  0.57243962     0.27900
H259        H  0.66895275  0.55348900  0.59410623     0.40700
H260        H  0.67465256  0.70211671  0.66325574     0.30800
H261        H  0.67356951  0.73370750  0.63354167     0.38400
H262        H  0.57382468  0.59481807  0.62896447     0.30300
H263        H  0.64729080  0.60124515  0.68466231     0.30300
H264        H  0.58820220  0.70304129  0.67782621     0.30600
Zr265      Zr  0.39571847  0.19536385  0.85745121     2.17500
O266        O  0.41742153  0.22510942  0.83903268    -0.51800
O267        O  0.38764072  0.25396488  0.86345317    -0.75000
O268        O  0.38681060  0.20070526  0.82608210    -0.81700
O269        O  0.43135920  0.17821895  0.89344564    -0.83500
O270        O  0.35964087  0.17636985  0.82231601    -0.79100
O271        O  0.42696279  0.20063122  0.86595959    -0.90700
O272        O  0.36365337  0.25587544  0.88178976    -0.76700
O273        O  0.36428788  0.19748259  0.86170425    -0.86200
O274        O  0.39105067  0.19917288  0.88882747    -0.85900
O275        O  0.38497769  0.14347135  0.84473765    -0.72600
O276        O  0.40933302  0.14590552  0.87016501    -0.84800
Zr277      Zr  0.36113583  0.09904966  0.89363157     2.26400
Zr278      Zr  0.35343031  0.14566709  0.84967375     2.06300
Zr279      Zr  0.40399113  0.14932451  0.90145213     2.10000
Zr280      Zr  0.35956516  0.19979169  0.89302070     1.78800
O281        O  0.42865058  0.11166264  0.90872145    -0.93600
O282        O  0.32938674  0.21873656  0.88609593    -0.41400
O283        O  0.37246941  0.15052444  0.90611131    -0.78000
O284        O  0.34776138  0.14902928  0.88108776    -0.96700
O285        O  0.36611472  0.09556233  0.86232924    -0.90000
O286        O  0.39276236  0.09750752  0.88962028    -0.92900
C287        C  0.37526854  0.26982977  0.87179555     1.00900
C288        C  0.43679286  0.19400166  0.87955912     1.13800
C289        C  0.37312964  0.19298569  0.81655336     1.04600
O290        O  0.32786700  0.18154093  0.84303161    -0.95000
O291        O  0.32652143  0.11516176  0.85652036    -0.90800
O292        O  0.33034398  0.08893459  0.88314045    -0.83900
C293        C  0.32073028  0.09761856  0.86962665     1.11200
O294        O  0.42146385  0.10228589  0.83664394    -0.97000
Zr295      Zr  0.39759795  0.09454464  0.85830620     1.88900
O296        O  0.36862875  0.04014794  0.88764328    -0.73600
O297        O  0.34745089  0.10664248  0.82541675    -0.52900
O298        O  0.38926786  0.06928516  0.82994580    -0.97600
O299        O  0.42467365  0.06464991  0.86721652    -0.54800
O300        O  0.38844705  0.03777484  0.86485651    -0.74200
C301        C  0.37831570  0.02397001  0.87642519     0.98200
O302        O  0.34120702  0.07707638  0.91650973    -0.63000
O303        O  0.41033048  0.18737715  0.92612266    -0.57800
O304        O  0.36997625  0.09433808  0.92508884    -0.94500
O305        O  0.39584619  0.12279043  0.92932780    -0.92900
O306        O  0.36849291  0.23422210  0.91830810    -0.93200
O307        O  0.33897449  0.19427321  0.91789023    -0.92000
C308        C  0.38284194  0.10483454  0.93506253     1.17000
H309        H  0.39653081  0.21920846  0.89362058     0.33000
H310        H  0.33515786  0.15021536  0.88357872     0.43800
H311        H  0.39798260  0.07847787  0.89575328     0.37400
H312        H  0.38772712  0.14132215  0.83225494     0.33800
H313        H  0.32893913  0.24244326  0.89015575     0.25600
H314        H  0.33736316  0.11693418  0.81882229     0.31600
H315        H  0.39575420  0.04754182  0.82957479     0.37500
H316        H  0.37263269  0.21787425  0.92738914     0.31900
H317        H  0.42156442  0.17875689  0.93139927     0.30800
H318        H  0.43464193  0.12236016  0.91901724     0.32500
H319        H  0.42109150  0.04979541  0.87717590     0.31500
H320        H  0.33863275  0.16979445  0.92042335     0.35500
H321        H  0.33095748  0.09283903  0.91697157     0.28200
H322        H  0.41085047  0.24393604  0.83334120     0.32400
H323        H  0.42510385  0.07934696  0.83295587     0.35300
H324        H  0.41370606  0.20906489  0.92057118     0.27900
H325        H  0.33631186  0.05576478  0.91172863     0.40700
H326        H  0.33292640  0.20426916  0.84105777     0.30800
H327        H  0.32902460  0.22027994  0.87296229     0.38400
H328        H  0.43225518  0.08206885  0.87283100     0.30300
H329        H  0.35778767  0.10888737  0.81732253     0.30300
H330        H  0.42047689  0.20955884  0.82919405     0.30600
Zr331      Zr  0.39558040  0.69336762  0.85822231     2.17500
O332        O  0.41867919  0.71253774  0.83772309    -0.51800
O333        O  0.39021199  0.75310320  0.86465462    -0.75000
O334        O  0.38457825  0.70420306  0.82794094    -0.81700
O335        O  0.43170684  0.66822400  0.89210862    -0.83500
O336        O  0.35770609  0.67880100  0.82445916    -0.79100
O337        O  0.42665329  0.69869095  0.86692765    -0.90700
O338        O  0.36883398  0.75636225  0.88592975    -0.76700
O339        O  0.36452726  0.69857302  0.86405756    -0.86200
O340        O  0.39278670  0.69509341  0.88984418    -0.85900
O341        O  0.38271466  0.64357512  0.84526250    -0.72600
O342        O  0.40776945  0.64125923  0.86944060    -0.84800
Zr343      Zr  0.35912181  0.59872024  0.89396042     2.26400
Zr344      Zr  0.35154523  0.64869966  0.85167803     2.06300
Zr345      Zr  0.40394571  0.64247316  0.90096749     2.10000
Zr346      Zr  0.36179876  0.69977207  0.89564742     1.78800
O347        O  0.42860502  0.60428613  0.90740267    -0.93600
O348        O  0.33294757  0.72700162  0.89132367    -0.41400
O349        O  0.37282554  0.64746400  0.90707453    -0.78000
O350        O  0.34734046  0.65157526  0.88328366    -0.96700
O351        O  0.36286490  0.59621491  0.86254806    -0.90000
O352        O  0.39041394  0.59321113  0.88865757    -0.92900
C353        C  0.37961290  0.76984817  0.87479565     1.00900
C354        C  0.43679698  0.68750438  0.87939637     1.13800
C355        C  0.37079132  0.69632372  0.81859947     1.04600
O356        O  0.32670276  0.68645272  0.84529216    -0.95000
O357        O  0.32382887  0.62156247  0.85893405    -0.90800
O358        O  0.32752563  0.59494086  0.88540244    -0.83900
C359        C  0.31784592  0.60486481  0.87223014     1.11200
O360        O  0.41772850  0.59684274  0.83505578    -0.97000
Zr361      Zr  0.39411322  0.59213220  0.85722057     1.88900
O362        O  0.36370020  0.53944841  0.88635676    -0.73600
O363        O  0.34458070  0.60986020  0.82758490    -0.52900
O364        O  0.38346485  0.57012339  0.82886331    -0.97600
O365        O  0.42124067  0.56064829  0.86418551    -0.54800
O366        O  0.38401718  0.53610707  0.86411637    -0.74200
C367        C  0.37307260  0.52275793  0.87509746     0.98200
O368        O  0.34031667  0.57344159  0.91684747    -0.63000
O369        O  0.41109023  0.68034309  0.92545477    -0.57800
O370        O  0.36856950  0.59256980  0.92485337    -0.94500
O371        O  0.39711701  0.61108272  0.92780591    -0.92900
O372        O  0.37489612  0.72469961  0.92223199    -0.93200
O373        O  0.34192574  0.69569627  0.92115730    -0.92000
C374        C  0.38288447  0.59744239  0.93392631     1.17000
H375        H  0.39933806  0.71383063  0.89478198     0.33000
H376        H  0.33493405  0.65454873  0.88629546     0.43800
H377        H  0.39514232  0.57314018  0.89423974     0.37400
H378        H  0.38490162  0.64236347  0.83263201     0.33800
H379        H  0.33395388  0.74884768  0.89759215     0.25600
H380        H  0.33527223  0.62151897  0.82050720     0.31600
H381        H  0.38703600  0.54609773  0.82883002     0.37500
H382        H  0.37075870  0.74839718  0.92216278     0.31900
H383        H  0.40164755  0.67644178  0.93441728     0.30800
H384        H  0.43588206  0.61614920  0.91644244     0.32500
H385        H  0.41856524  0.54814846  0.87526447     0.31500
H386        H  0.33995915  0.67120884  0.92274005     0.35500
H387        H  0.33066086  0.58991853  0.91917079     0.28200
H388        H  0.41449670  0.73450449  0.83302923     0.32400
H389        H  0.41887065  0.57419325  0.82966307     0.35300
H390        H  0.42202514  0.67073400  0.93087686     0.27900
H391        H  0.33438448  0.55396424  0.91114146     0.40700
H392        H  0.32082483  0.69001003  0.85692911     0.30800
H393        H  0.33267925  0.73309031  0.87854722     0.38400
H394        H  0.42999613  0.57797464  0.86785450     0.30300
H395        H  0.35526460  0.61008918  0.81986409     0.30300
H396        H  0.41829232  0.69693911  0.82745244     0.30600
Zr397      Zr  0.39757019  0.24235636  0.64370022     2.17500
O398        O  0.42036286  0.21783206  0.66309392    -0.51800
O399        O  0.39227020  0.18366217  0.63586764    -0.75000
O400        O  0.38739227  0.23209689  0.67423109    -0.81700
O401        O  0.43351634  0.26579508  0.60946331    -0.83500
O402        O  0.35955027  0.25376018  0.67772144    -0.79100
O403        O  0.42880338  0.23871259  0.63573632    -0.90700
O404        O  0.37266535  0.18151277  0.61295013    -0.76700
O405        O  0.36657352  0.23710501  0.63756225    -0.86200
O406        O  0.39482277  0.24203988  0.61205216    -0.85900
O407        O  0.38450336  0.29126253  0.65726750    -0.72600
O408        O  0.40997993  0.29431380  0.63300724    -0.84800
Zr409      Zr  0.36163735  0.33890481  0.60879952     2.26400
Zr410      Zr  0.35331686  0.28604015  0.65068860     2.06300
Zr411      Zr  0.40618060  0.29468094  0.60130693     2.10000
Zr412      Zr  0.36385491  0.23817053  0.60593945     1.78800
O413        O  0.42981865  0.33591029  0.59702994    -0.93600
O414        O  0.33631879  0.20742611  0.61147848    -0.41400
O415        O  0.37504840  0.29052809  0.59521291    -0.78000
O416        O  0.34941759  0.28584670  0.61889454    -0.96700
O417        O  0.36494687  0.33888301  0.64033837    -0.90000
O418        O  0.39285944  0.34352310  0.61430469    -0.92900
C419        C  0.38304058  0.16751367  0.62427057     1.00900
C420        C  0.43873371  0.24787532  0.62272596     1.13800
C421        C  0.37339806  0.23811776  0.68359664     1.04600
O422        O  0.32902265  0.24590412  0.65417524    -0.95000
O423        O  0.32606693  0.31624040  0.64387044    -0.90800
O424        O  0.33026140  0.34239363  0.61723182    -0.83900
C425        C  0.32052663  0.33316555  0.63040345     1.11200
O426        O  0.41560126  0.33906056  0.67189032    -0.97000
Zr427      Zr  0.39616137  0.34266354  0.64588207     1.88900
O428        O  0.36826457  0.39783320  0.61638459    -0.73600
O429        O  0.34472263  0.32021583  0.67617464    -0.52900
O430        O  0.38274140  0.36912672  0.67188840    -0.97600
O431        O  0.42557004  0.36636944  0.64006262    -0.54800
O432        O  0.38977969  0.39958382  0.63757986    -0.74200
C433        C  0.37906073  0.41382848  0.62669908     0.98200
O434        O  0.34346610  0.37006667  0.58733560    -0.63000
O435        O  0.41516602  0.26159473  0.57550817    -0.57800
O436        O  0.36917082  0.34146178  0.57713066    -0.94500
O437        O  0.39754301  0.32239399  0.57351536    -0.92900
O438        O  0.37672154  0.21817649  0.57813016    -0.93200
O439        O  0.34242289  0.24149081  0.58160064    -0.92000
C440        C  0.38304111  0.33568073  0.56753953     1.17000
H441        H  0.40132767  0.22335627  0.60697046     0.33000
H442        H  0.33702492  0.28315402  0.61569627     0.43800
H443        H  0.39780232  0.36357919  0.60896272     0.37400
H444        H  0.38662277  0.29237260  0.66991553     0.33800
H445        H  0.33740699  0.18654611  0.60435944     0.25600
H446        H  0.33547779  0.30680713  0.68235137     0.31600
H447        H  0.38792285  0.39203249  0.67241311     0.37500
H448        H  0.37272486  0.19451164  0.57706080     0.31900
H449        H  0.42754195  0.26882139  0.57297466     0.30800
H450        H  0.43286838  0.33431652  0.58424428     0.32500
H451        H  0.42486207  0.37530227  0.62777796     0.31500
H452        H  0.34029956  0.26592749  0.57995705     0.35500
H453        H  0.33347458  0.35495641  0.58407694     0.28200
H454        H  0.41496352  0.19757264  0.66857305     0.32400
H455        H  0.41931006  0.36250547  0.67443001     0.35300
H456        H  0.41637859  0.23816043  0.57986345     0.27900
H457        H  0.33790182  0.38873231  0.59408197     0.40700
H458        H  0.32222121  0.24728364  0.64288536     0.30800
H459        H  0.33733645  0.19972476  0.62397824     0.38400
H460        H  0.43361218  0.34662809  0.63915108     0.30300
H461        H  0.35517189  0.31962459  0.68425711     0.30300
H462        H  0.42197203  0.23402272  0.67298171     0.30600
Zr463      Zr  0.39680536  0.74212777  0.64703794     2.17500
O464        O  0.41770220  0.71359777  0.66702284    -0.51800
O465        O  0.39025827  0.68329952  0.63976681    -0.75000
O466        O  0.38569298  0.73627150  0.67764176    -0.81700
O467        O  0.43381738  0.76347477  0.61352604    -0.83500
O468        O  0.35979397  0.76537619  0.68073316    -0.79100
O469        O  0.42876442  0.73931502  0.64050339    -0.90700
O470        O  0.36970980  0.68196447  0.61758939    -0.76700
O471        O  0.36543081  0.74187579  0.64175599    -0.86200
O472        O  0.39304616  0.73802534  0.61552428    -0.85900
O473        O  0.38624337  0.79487579  0.65895077    -0.72600
O474        O  0.41065402  0.79084934  0.63426067    -0.84800
Zr475      Zr  0.36393368  0.83959893  0.60925482     2.26400
Zr476      Zr  0.35476445  0.79467077  0.65299327     2.06300
Zr477      Zr  0.40619139  0.78735401  0.60284245     2.10000
Zr478      Zr  0.36176760  0.73880067  0.61024451     1.78800
O479        O  0.43024561  0.82457631  0.59356463    -0.93600
O480        O  0.33402272  0.70998047  0.61747632    -0.41400
O481        O  0.37489115  0.78759515  0.59729264    -0.78000
O482        O  0.34987435  0.79012142  0.62156703    -0.96700
O483        O  0.36832916  0.84389324  0.64055100    -0.90000
O484        O  0.39537720  0.83988008  0.61402361    -0.92900
C485        C  0.38028095  0.66759595  0.62858386     1.00900
C486        C  0.43905892  0.74805497  0.62761096     1.13800
C487        C  0.37227786  0.74651272  0.68684969     1.04600
O488        O  0.32865005  0.75943933  0.65779562    -0.95000
O489        O  0.32857482  0.82775616  0.64595909    -0.90800
O490        O  0.33269457  0.84739210  0.61782635    -0.83900
C491        C  0.32301453  0.84184265  0.63162969     1.11200
O492        O  0.42114198  0.83959116  0.66984319    -0.97000
Zr493      Zr  0.39971245  0.84299501  0.64541745     1.88900
O494        O  0.37219355  0.89801889  0.61543541    -0.73600
O495        O  0.34854511  0.83350614  0.67730120    -0.52900
O496        O  0.38865769  0.87333291  0.67134719    -0.97600
O497        O  0.42948009  0.86227917  0.63722490    -0.54800
O498        O  0.39477061  0.89969305  0.63554905    -0.74200
C499        C  0.38376621  0.91385102  0.62489716     0.98200
O500        O  0.34629685  0.87022303  0.58716472    -0.63000
O501        O  0.41339204  0.74492958  0.58051211    -0.57800
O502        O  0.37212507  0.83938897  0.57768874    -0.94500
O503        O  0.39795110  0.81022643  0.57408968    -0.92900
O504        O  0.37110340  0.71624917  0.58161677    -0.93200
O505        O  0.33793275  0.74422146  0.58834005    -0.92000
C506        C  0.38488010  0.82776660  0.56801136     1.17000
H507        H  0.39866881  0.71803089  0.61081237     0.33000
H508        H  0.33732996  0.78853069  0.61880712     0.43800
H509        H  0.40097328  0.85836650  0.60782026     0.37400
H510        H  0.38869269  0.79694445  0.67151551     0.33800
H511        H  0.33451858  0.68851704  0.61078316     0.25600
H512        H  0.33901765  0.82246584  0.68430289     0.31600
H513        H  0.39459874  0.89558172  0.67095537     0.37500
H514        H  0.36416879  0.69520861  0.58020650     0.31900
H515        H  0.42252024  0.75565560  0.57288161     0.30800
H516        H  0.43475456  0.81464597  0.58235890     0.32500
H517        H  0.42800208  0.87316236  0.62545272     0.31500
H518        H  0.34113692  0.76445495  0.58132544     0.35500
H519        H  0.33596654  0.85562520  0.58433742     0.28200
H520        H  0.41125304  0.69378285  0.67176701     0.32400
H521        H  0.42417797  0.86320740  0.67279554     0.35300
H522        H  0.41995447  0.72700598  0.58696195     0.27900
H523        H  0.34119593  0.88990730  0.59345454     0.40700
H524        H  0.32325350  0.75681061  0.64583891     0.30800
H525        H  0.33536274  0.70321058  0.63009305     0.38400
H526        H  0.43627345  0.84141208  0.63468950     0.30300
H527        H  0.35923526  0.83250647  0.68505193     0.30300
H528        H  0.41936449  0.72878299  0.67734184     0.30600
Zr529      Zr  0.90033504  0.98930306  0.64712246     2.17500
O530        O  0.92434220  0.97205686  0.66718625    -0.51800
O531        O  0.89466957  0.92935864  0.64181451    -0.75000
O532        O  0.89033991  0.97990250  0.67795754    -0.81700
O533        O  0.93494700  0.01115383  0.61140346    -0.83500
O534        O  0.86387794  0.00680215  0.68192877    -0.79100
O535        O  0.93102314  0.98202774  0.63713580    -0.90700
O536        O  0.87435772  0.92501918  0.61950500    -0.76700
O537        O  0.86920366  0.98307885  0.64186582    -0.86200
O538        O  0.89662536  0.98600629  0.61559050    -0.85900
O539        O  0.88731878  0.03952762  0.65952618    -0.72600
O540        O  0.91177209  0.04111795  0.63486932    -0.84800
Zr541      Zr  0.86186347  0.08146542  0.61070650     2.26400
Zr542      Zr  0.85599705  0.03302708  0.65391946     2.06300
Zr543      Zr  0.90702037  0.03816010  0.60343393     2.10000
Zr544      Zr  0.86556453  0.98061837  0.61037130     1.78800
O545        O  0.93078603  0.07813987  0.59713259    -0.93600
O546        O  0.83773305  0.95151978  0.61689221    -0.41400
O547        O  0.87576957  0.03248059  0.59800068    -0.78000
O548        O  0.85103755  0.02877247  0.62240601    -0.96700
O549        O  0.86646932  0.08532187  0.64202530    -0.90000
O550        O  0.89327977  0.08778471  0.61523480    -0.92900
C551        C  0.88496604  0.91216344  0.63100609     1.00900
C552        C  0.94063292  0.99205317  0.62399949     1.13800
C553        C  0.87709722  0.98934397  0.68768106     1.04600
O554        O  0.83335061  0.99240453  0.66270304    -0.95000
O555        O  0.82719738  0.05578937  0.64615834    -0.90800
O556        O  0.83036902  0.08459649  0.62022056    -0.83900
C557        C  0.82087559  0.07299017  0.63314076     1.11200
O558        O  0.92195670  0.08900687  0.66836911    -0.97000
Zr559      Zr  0.89779968  0.09058153  0.64655696     1.88900
O560        O  0.86591455  0.14114499  0.61770722    -0.73600
O561        O  0.84709205  0.07394654  0.67633542    -0.52900
O562        O  0.88807693  0.11306965  0.67510689    -0.97600
O563        O  0.92384956  0.12301633  0.63740431    -0.54800
O564        O  0.88600152  0.14568316  0.64023793    -0.74200
C565        C  0.87488986  0.15828130  0.62913125     0.98200
O566        O  0.84165519  0.10265779  0.58774764    -0.63000
O567        O  0.91433543  0.00258922  0.57802100    -0.57800
O568        O  0.87112659  0.08918773  0.57969373    -0.94500
O569        O  0.89842690  0.06556724  0.57586198    -0.92900
O570        O  0.87781137  0.95602708  0.58334084    -0.93200
O571        O  0.84390094  0.98182158  0.58617234    -0.92000
C572        C  0.88476577  0.08182157  0.57004910     1.17000
H573        H  0.90315907  0.96712707  0.61074281     0.33000
H574        H  0.83865276  0.02502188  0.61954222     0.43800
H575        H  0.89767900  0.10769503  0.60928482     0.37400
H576        H  0.88994596  0.04170318  0.67204338     0.33800
H577        H  0.83883231  0.92941414  0.61089431     0.25600
H578        H  0.83923536  0.06125683  0.68452064     0.31600
H579        H  0.89274195  0.13637847  0.67548284     0.37500
H580        H  0.87130258  0.93453379  0.58182493     0.31900
H581        H  0.92460603  0.01382007  0.57226336     0.30800
H582        H  0.93667120  0.06922708  0.58632950     0.32500
H583        H  0.91955943  0.13835281  0.62791275     0.31500
H584        H  0.84053654  0.00586318  0.58502148     0.35500
H585        H  0.83224485  0.08536167  0.58636058     0.28200
H586        H  0.92031488  0.95084296  0.67283510     0.32400
H587        H  0.92386350  0.11265690  0.67208885     0.35300
H588        H  0.91937416  0.98164031  0.58313471     0.27900
H589        H  0.83557969  0.12246473  0.59298210     0.40700
H590        H  0.83953698  0.97034098  0.66270012     0.30800
H591        H  0.83843413  0.94616610  0.62974615     0.38400
H592        H  0.93156546  0.10658542  0.63117045     0.30300
H593        H  0.85804481  0.07827918  0.68332966     0.30300
H594        H  0.92448087  0.98894203  0.67687793     0.30600
Zr595      Zr  0.89513477  0.48478464  0.64918471     2.17500
O596        O  0.91785127  0.46129982  0.66900185    -0.51800
O597        O  0.88783642  0.42658653  0.64205446    -0.75000
O598        O  0.88442263  0.47475105  0.67951834    -0.81700
O599        O  0.93165569  0.50722980  0.61589126    -0.83500
O600        O  0.85820174  0.50250043  0.68324710    -0.79100
O601        O  0.92632540  0.47652565  0.64086677    -0.90700
O602        O  0.86628668  0.42569357  0.62083559    -0.76700
O603        O  0.86379864  0.48337947  0.64366514    -0.86200
O604        O  0.89163569  0.48344503  0.61760910    -0.85900
O605        O  0.88360213  0.53549660  0.66245518    -0.72600
O606        O  0.90873287  0.53523692  0.63808119    -0.84800
Zr607      Zr  0.86130755  0.58419875  0.61403311     2.26400
Zr608      Zr  0.85217623  0.53428356  0.65630714     2.06300
Zr609      Zr  0.90437013  0.53460139  0.60657484     2.10000
Zr610      Zr  0.86042895  0.48301857  0.61212346     1.78800
O611        O  0.92884993  0.57273730  0.59979605    -0.93600
O612        O  0.83165516  0.45630587  0.61738835    -0.41400
O613        O  0.87308073  0.53382233  0.60071466    -0.78000
O614        O  0.84780462  0.53269664  0.62469484    -0.96700
O615        O  0.86520476  0.58545465  0.64550783    -0.90000
O616        O  0.89265587  0.58522670  0.61919496    -0.92900
C617        C  0.87696172  0.41112849  0.63170043     1.00900
C618        C  0.93664282  0.48753877  0.62851655     1.13800
C619        C  0.87091460  0.48360798  0.68896076     1.04600
O620        O  0.82681266  0.49772315  0.66224129    -0.95000
O621        O  0.82505136  0.56484602  0.64897688    -0.90800
O622        O  0.82978142  0.58984109  0.62212178    -0.83900
C623        C  0.81975035  0.58131788  0.63523954     1.11200
O624        O  0.91842452  0.57885357  0.67454832    -0.97000
Zr625      Zr  0.89660531  0.58537369  0.65064731     1.88900
O626        O  0.86954390  0.64272343  0.62115929    -0.73600
O627        O  0.84567282  0.57220299  0.68090847    -0.52900
O628        O  0.88651831  0.61114152  0.67830569    -0.97600
O629        O  0.92563590  0.60837413  0.64252764    -0.54800
O630        O  0.89016308  0.64272434  0.64320548    -0.74200
C631        C  0.88021306  0.65789946  0.63196092     0.98200
O632        O  0.84417869  0.61741876  0.59259054    -0.63000
O633        O  0.91232876  0.49520355  0.58304367    -0.57800
O634        O  0.86933976  0.58616597  0.58253616    -0.94500
O635        O  0.89683556  0.56301318  0.57889656    -0.92900
O636        O  0.87172874  0.45859531  0.58466104    -0.93200
O637        O  0.83894340  0.48950845  0.58798400    -0.92000
C638        C  0.88296247  0.57847864  0.57297591     1.17000
H639        H  0.89747056  0.46401382  0.61251537     0.33000
H640        H  0.83534888  0.53073421  0.62168626     0.43800
H641        H  0.89801741  0.60460339  0.61357735     0.37400
H642        H  0.88596782  0.53639978  0.67507039     0.33800
H643        H  0.83178558  0.43575608  0.60992367     0.25600
H644        H  0.83660108  0.56020619  0.68806972     0.31600
H645        H  0.89127431  0.63439387  0.67807866     0.37500
H646        H  0.86571632  0.43647344  0.58373921     0.31900
H647        H  0.90205934  0.49558545  0.57473717     0.30800
H648        H  0.93641140  0.56021785  0.59126768     0.32500
H649        H  0.92663473  0.62971625  0.64924229     0.31500
H650        H  0.83603409  0.51385196  0.58785649     0.35500
H651        H  0.83401506  0.60306221  0.58893045     0.28200
H652        H  0.91280751  0.44009867  0.67377100     0.32400
H653        H  0.92158829  0.60197891  0.67832848     0.35300
H654        H  0.92207357  0.50645814  0.57645459     0.27900
H655        H  0.83877498  0.63609036  0.59945747     0.40700
H656        H  0.82133327  0.49380330  0.65042573     0.30800
H657        H  0.83237458  0.44773403  0.62974822     0.38400
H658        H  0.92447603  0.61551764  0.62995788     0.30300
H659        H  0.85656941  0.57180847  0.68837813     0.30300
H660        H  0.91855431  0.47678750  0.67930301     0.30600
Zr661      Zr  0.89380369  0.43381507  0.86083069     2.17500
O662        O  0.91439788  0.46642725  0.84251564    -0.51800
O663        O  0.88549366  0.49206599  0.86772994    -0.75000
O664        O  0.88383063  0.43962883  0.82995932    -0.81700
O665        O  0.93088117  0.41430130  0.89473416    -0.83500
O666        O  0.85809445  0.41044095  0.82623860    -0.79100
O667        O  0.92552741  0.43848934  0.86786591    -0.90700
O668        O  0.86299001  0.49242034  0.88777988    -0.76700
O669        O  0.86234241  0.43202225  0.86520441    -0.86200
O670        O  0.88958349  0.43704608  0.89221815    -0.85900
O671        O  0.88440037  0.38086716  0.84817666    -0.72600
O672        O  0.90843724  0.38528964  0.87317992    -0.84800
Zr673      Zr  0.86214503  0.33345822  0.89714005     2.26400
Zr674      Zr  0.85289625  0.37876298  0.85336161     2.06300
Zr675      Zr  0.90354167  0.38781376  0.90448835     2.10000
Zr676      Zr  0.85821555  0.43466650  0.89660511     1.78800
O677        O  0.92808911  0.35103044  0.91327826    -0.93600
O678        O  0.82899646  0.45764097  0.88900761    -0.41400
O679        O  0.87212542  0.38606049  0.90942505    -0.78000
O680        O  0.84761254  0.38279759  0.88480700    -0.96700
O681        O  0.86690008  0.32979990  0.86579543    -0.90000
O682        O  0.89365637  0.33499925  0.89279167    -0.92900
C683        C  0.87395181  0.50738833  0.87742282     1.00900
C684        C  0.93594794  0.43033708  0.88079208     1.13800
C685        C  0.87060016  0.42959379  0.82044965     1.04600
O686        O  0.82584679  0.40691754  0.84319840    -0.95000
O687        O  0.82608346  0.34801353  0.86117493    -0.90800
O688        O  0.83088830  0.32478531  0.88844276    -0.83900
C689        C  0.82082932  0.33202413  0.87506296     1.11200
O690        O  0.92051937  0.34032957  0.83799180    -0.97000
Zr691      Zr  0.89835441  0.33284203  0.86143391     1.88900
O692        O  0.87154613  0.27520829  0.89126028    -0.73600
O693        O  0.85132039  0.33631771  0.83003714    -0.52900
O694        O  0.88968296  0.30430934  0.83403871    -0.97600
O695        O  0.92793283  0.31263307  0.86998310    -0.54800
O696        O  0.89305019  0.27545581  0.87017024    -0.74200
C697        C  0.88291103  0.26017034  0.88118901     0.98200
O698        O  0.84499454  0.30030078  0.91844256    -0.63000
O699        O  0.91028174  0.42878928  0.92769189    -0.57800
O700        O  0.86977769  0.33345520  0.92898033    -0.94500
O701        O  0.89530804  0.36334048  0.93277083    -0.92900
O702        O  0.86683572  0.46112221  0.92453603    -0.93200
O703        O  0.83550661  0.42676747  0.91935121    -0.92000
C704        C  0.88238886  0.34545452  0.93875705     1.17000
H705        H  0.89468426  0.45739669  0.89708073     0.33000
H706        H  0.83506320  0.38402479  0.88749976     0.43800
H707        H  0.89944680  0.31657812  0.89893043     0.37400
H708        H  0.88712986  0.37931553  0.83566136     0.33800
H709        H  0.82795044  0.47854077  0.89611947     0.25600
H710        H  0.84006788  0.34137456  0.82363460     0.31600
H711        H  0.89531251  0.28176188  0.83474841     0.37500
H712        H  0.86094811  0.48346829  0.92429923     0.31900
H713        H  0.92054799  0.41903550  0.93423099     0.30800
H714        H  0.93514491  0.36444536  0.92186852     0.32500
H715        H  0.92965488  0.29148818  0.86322496     0.31500
H716        H  0.83774859  0.40383696  0.92406566     0.35500
H717        H  0.83430199  0.31386597  0.92139730     0.28200
H718        H  0.90753762  0.48623642  0.83829872     0.32400
H719        H  0.92410621  0.31740959  0.83421668     0.35300
H720        H  0.91529765  0.44856852  0.92143241     0.27900
H721        H  0.84043407  0.28057628  0.91179051     0.40700
H722        H  0.82150624  0.41934766  0.85375376     0.30800
H723        H  0.83020431  0.46561083  0.87657931     0.38400
H724        H  0.92674403  0.30518553  0.88249611     0.30300
H725        H  0.86083093  0.34255676  0.82152661     0.30300
H726        H  0.91669393  0.45280111  0.83172744     0.30600
Zr727      Zr  0.89788603  0.92847120  0.85935166     2.17500
O728        O  0.92098468  0.94781525  0.83890829    -0.51800
O729        O  0.89445882  0.98856748  0.86658474    -0.75000
O730        O  0.88758600  0.93976704  0.82890565    -0.81700
O731        O  0.93379243  0.89763202  0.89230356    -0.83500
O732        O  0.86027068  0.91632049  0.82484592    -0.79100
O733        O  0.92957282  0.92868219  0.86724654    -0.90700
O734        O  0.87614158  0.99376010  0.89044387    -0.76700
O735        O  0.86718520  0.93818603  0.86562364    -0.86200
O736        O  0.89549190  0.93018037  0.89096901    -0.85900
O737        O  0.88265630  0.88050481  0.84675166    -0.72600
O738        O  0.90813791  0.87465287  0.87008162    -0.84800
Zr739      Zr  0.85797741  0.83918141  0.89599184     2.26400
Zr740      Zr  0.85175938  0.89079283  0.85318566     2.06300
Zr741      Zr  0.90497038  0.87626034  0.90168544     2.10000
Zr742      Zr  0.86480085  0.93890252  0.89730171     1.78800
O743        O  0.92550516  0.82972995  0.90721844    -0.93600
O744        O  0.83855816  0.97270126  0.89021618    -0.41400
O745        O  0.87416091  0.88561511  0.90858599    -0.78000
O746        O  0.84829147  0.89336393  0.88496617    -0.96700
O747        O  0.86106032  0.83692550  0.86439489    -0.90000
O748        O  0.88890207  0.82893799  0.89012410    -0.92900
C749        C  0.88637320  0.00607535  0.87853345     1.00900
C750        C  0.93957947  0.91613167  0.87952103     1.13800
C751        C  0.87405404  0.93227074  0.81914243     1.04600
O752        O  0.83088311  0.93706343  0.84847041    -0.95000
O753        O  0.82280934  0.86758379  0.86100946    -0.90800
O754        O  0.82604594  0.84131248  0.88779781    -0.83900
C755        C  0.81649957  0.85225777  0.87467404     1.11200
O756        O  0.91244287  0.82543310  0.83352239    -0.97000
Zr757      Zr  0.89192551  0.82758746  0.85863450     1.88900
O758        O  0.86180142  0.77893178  0.88967097    -0.73600
O759        O  0.83958417  0.85637639  0.82925828    -0.52900
O760        O  0.87935778  0.80174744  0.83201023    -0.97600
O761        O  0.91967525  0.79870477  0.86618261    -0.54800
O762        O  0.88134240  0.77272466  0.86685956    -0.74200
C763        C  0.87053638  0.76093705  0.87842158     0.98200
O764        O  0.83520353  0.81445380  0.91514312    -0.63000
O765        O  0.91882206  0.91145757  0.92439666    -0.57800
O766        O  0.86718832  0.83587679  0.92757547    -0.94500
O767        O  0.89564791  0.85481718  0.93036391    -0.92900
O768        O  0.87725650  0.95843532  0.92543310    -0.93200
O769        O  0.84278640  0.93972413  0.92111261    -0.92000
C770        C  0.88127327  0.84235288  0.93687139     1.17000
H771        H  0.90283376  0.94779323  0.89595394     0.33000
H772        H  0.83614168  0.89852772  0.88817980     0.43800
H773        H  0.89297094  0.80837246  0.89571167     0.37400
H774        H  0.88485740  0.87831918  0.83416875     0.33800
H775        H  0.83938724  0.99259653  0.89810903     0.25600
H776        H  0.83327041  0.87241308  0.82133121     0.31600
H777        H  0.86679018  0.79678942  0.83507168     0.37500
H778        H  0.87667347  0.93869231  0.93348570     0.31900
H779        H  0.90950044  0.91511613  0.93350359     0.30800
H780        H  0.93467194  0.83912265  0.91530939     0.32500
H781        H  0.91675270  0.78417324  0.87648222     0.31500
H782        H  0.83967744  0.91574623  0.92298730     0.35500
H783        H  0.84093656  0.79476234  0.92091301     0.28200
H784        H  0.91673190  0.96947486  0.83388845     0.32400
H785        H  0.91479730  0.80119359  0.83144289     0.35300
H786        H  0.92773310  0.89670258  0.93026765     0.27900
H787        H  0.83324968  0.83086723  0.92486210     0.40700
H788        H  0.82268050  0.93610624  0.85877025     0.30800
H789        H  0.84088079  0.98175123  0.87815832     0.38400
H790        H  0.92750760  0.81644667  0.87113477     0.30300
H791        H  0.85010825  0.84895128  0.82235545     0.30300
H792        H  0.92099475  0.93176709  0.82882136     0.30600
Zr793      Zr  0.11113243  0.97878352  0.86005943     2.17500
O794        O  0.08825781  0.95299917  0.84135242    -0.51800
O795        O  0.11988128  0.92042792  0.86578839    -0.75000
O796        O  0.12005473  0.97252240  0.82858921    -0.81700
O797        O  0.07589552  0.99763305  0.89621245    -0.83500
O798        O  0.14572622  0.00161235  0.82445963    -0.79100
O799        O  0.08033087  0.97095488  0.86986165    -0.90700
O800        O  0.14116644  0.91919349  0.88726803    -0.76700
O801        O  0.14266317  0.97859577  0.86406631    -0.86200
O802        O  0.11637997  0.97518661  0.89143735    -0.85900
O803        O  0.12061588  0.03152702  0.84740366    -0.72600
O804        O  0.09747941  0.02740887  0.87339016    -0.84800
Zr805      Zr  0.14577075  0.07701276  0.89542935     2.26400
Zr806      Zr  0.15226574  0.03117380  0.85174504     2.06300
Zr807      Zr  0.10366892  0.02465209  0.90454070     2.10000
Zr808      Zr  0.14778246  0.97612369  0.89543968     1.78800
O809        O  0.07943368  0.06125839  0.91415236    -0.93600
O810        O  0.17624428  0.95001681  0.88796581    -0.41400
O811        O  0.13529282  0.02540225  0.90863927    -0.78000
O812        O  0.15890308  0.02681921  0.88292997    -0.96700
O813        O  0.13936001  0.08086480  0.86438016    -0.90000
O814        O  0.11398149  0.07689345  0.89248790    -0.92900
C815        C  0.13064766  0.90478425  0.87628345     1.00900
C816        C  0.07041211  0.97993818  0.88300228     1.13800
C817        C  0.13302029  0.98291535  0.81877147     1.04600
O818        O  0.17756609  0.99854781  0.84099502    -0.95000
O819        O  0.17986594  0.05939163  0.85847246    -0.90800
O820        O  0.17711787  0.08359138  0.88566417    -0.83900
C821        C  0.18637198  0.07491713  0.87193645     1.11200
O822        O  0.08356047  0.07239222  0.83991823    -0.97000
Zr823      Zr  0.10762010  0.07958335  0.86149353     1.88900
O824        O  0.13749146  0.13536642  0.88877365    -0.73600
O825        O  0.15566370  0.07334519  0.82846345    -0.52900
O826        O  0.11421452  0.11018412  0.83414660    -0.97600
O827        O  0.07875398  0.09988204  0.87197899    -0.54800
O828        O  0.11349866  0.13659943  0.87036143    -0.74200
C829        C  0.12522363  0.15103939  0.88007824     0.98200
O830        O  0.16435986  0.10749383  0.91668754    -0.63000
O831        O  0.09798013  0.98406494  0.92825074    -0.57800
O832        O  0.13811388  0.08089722  0.92707978    -0.94500
O833        O  0.11261244  0.05156145  0.93206427    -0.92900
O834        O  0.13885449  0.95134838  0.92372345    -0.93200
O835        O  0.17165492  0.98217407  0.91727048    -0.92000
C836        C  0.12556680  0.07025222  0.93731807     1.17000
H837        H  0.11115578  0.95499556  0.89635280     0.33000
H838        H  0.17150915  0.02468865  0.88521472     0.43800
H839        H  0.10873241  0.09554492  0.89886301     0.37400
H840        H  0.11750283  0.03341193  0.83497927     0.33800
H841        H  0.17643534  0.92853805  0.89468968     0.25600
H842        H  0.16567774  0.06493394  0.82111854     0.31600
H843        H  0.12486756  0.12392808  0.83694985     0.37500
H844        H  0.14690117  0.93176494  0.92534079     0.31900
H845        H  0.08735656  0.99297321  0.93449595     0.30800
H846        H  0.07405516  0.04947307  0.92444354     0.32500
H847        H  0.08144111  0.11411695  0.88244551     0.31500
H848        H  0.16834010  0.00237068  0.92425010     0.35500
H849        H  0.17487238  0.09297780  0.91900513     0.28200
H850        H  0.09394610  0.93308732  0.83580520     0.32400
H851        H  0.08010221  0.09543554  0.83618828     0.35300
H852        H  0.09363321  0.96347293  0.92223591     0.27900
H853        H  0.16904998  0.12727071  0.91016363     0.40700
H854        H  0.18185052  0.98596485  0.85155421     0.30800
H855        H  0.17495338  0.94311373  0.87537678     0.38400
H856        H  0.07283916  0.07973464  0.87701738     0.30300
H857        H  0.14499570  0.07061855  0.82080680     0.30300
H858        H  0.08612119  0.96901272  0.83145089     0.30600
Zr859      Zr  0.10831168  0.47968142  0.85961267     2.17500
O860        O  0.08592031  0.45118085  0.84143389    -0.51800
O861        O  0.11463351  0.42101843  0.86762200    -0.75000
O862        O  0.11764219  0.47049842  0.82859771    -0.81700
O863        O  0.07277943  0.50449772  0.89411962    -0.83500
O864        O  0.14464462  0.49496773  0.82403497    -0.79100
O865        O  0.07696147  0.47719490  0.86790455    -0.90700
O866        O  0.13547022  0.41934562  0.88950467    -0.76700
O867        O  0.13974204  0.47710920  0.86391427    -0.86200
O868        O  0.11287816  0.47824655  0.89109713    -0.85900
O869        O  0.11924257  0.53037886  0.84578189    -0.72600
O870        O  0.09554468  0.53069462  0.87133646    -0.84800
Zr871      Zr  0.14425067  0.57707681  0.89349324     2.26400
Zr872      Zr  0.15081160  0.52787004  0.85058196     2.06300
Zr873      Zr  0.10093466  0.52963814  0.90265283     2.10000
Zr874      Zr  0.14429287  0.47650594  0.89537574     1.78800
O875        O  0.07731530  0.56822759  0.91161866    -0.93600
O876        O  0.17193928  0.44818132  0.88727026    -0.41400
O877        O  0.13238713  0.52739555  0.90729986    -0.78000
O878        O  0.15670989  0.52555826  0.88201234    -0.96700
O879        O  0.13889208  0.57929827  0.86222148    -0.90000
O880        O  0.11263493  0.58001950  0.88973565    -0.92900
C881        C  0.12449869  0.40509663  0.87886405     1.00900
C882        C  0.06708276  0.48742088  0.88077601     1.13800
C883        C  0.13121364  0.47756802  0.81881191     1.04600
O884        O  0.17673573  0.49500181  0.84170892    -0.95000
O885        O  0.17858732  0.55597965  0.85700352    -0.90800
O886        O  0.17485965  0.58488240  0.88277558    -0.83900
C887        C  0.18442787  0.57453544  0.86968505     1.11200
O888        O  0.08249378  0.57409719  0.83773514    -0.97000
Zr889      Zr  0.10731789  0.58091166  0.85847460     1.88900
O890        O  0.13749684  0.63560174  0.88646238    -0.73600
O891        O  0.15386839  0.56881794  0.82661995    -0.52900
O892        O  0.11466194  0.60488988  0.82952977    -0.97600
O893        O  0.08037147  0.61016693  0.86818944    -0.54800
O894        O  0.11659673  0.63772755  0.86462696    -0.74200
C895        C  0.12739502  0.65168620  0.87554713     0.98200
O896        O  0.16466632  0.60182622  0.91520039    -0.63000
O897        O  0.09394364  0.49026700  0.92653553    -0.57800
O898        O  0.13670690  0.58349160  0.92499720    -0.94500
O899        O  0.11038064  0.55701723  0.92987692    -0.92900
O900        O  0.13639644  0.45306382  0.92428074    -0.93200
O901        O  0.16763877  0.48493469  0.91754312    -0.92000
C902        C  0.12384476  0.57427314  0.93521152     1.17000
H903        H  0.10700420  0.45915958  0.89649492     0.33000
H904        H  0.16930971  0.52376317  0.88447513     0.43800
H905        H  0.10778157  0.59963015  0.89559373     0.37400
H906        H  0.11638406  0.53136282  0.83326858     0.33800
H907        H  0.17270383  0.42863473  0.89544106     0.25600
H908        H  0.16407749  0.56051894  0.81951647     0.31600
H909        H  0.11008332  0.62829309  0.82990991     0.37500
H910        H  0.14361930  0.43224515  0.92535052     0.31900
H911        H  0.10512759  0.48833420  0.93350312     0.30800
H912        H  0.07151533  0.55706272  0.92187494     0.32500
H913        H  0.08410251  0.62469208  0.87822217     0.31500
H914        H  0.16516812  0.50749599  0.92259463     0.35500
H915        H  0.17498444  0.58629221  0.91612967     0.28200
H916        H  0.09176392  0.43052796  0.83688860     0.32400
H917        H  0.07907564  0.59716974  0.83401644     0.35300
H918        H  0.08569162  0.50274366  0.93442172     0.27900
H919        H  0.16939643  0.62261773  0.90965794     0.40700
H920        H  0.17392517  0.47167010  0.84541781     0.30800
H921        H  0.16949886  0.43814766  0.87546084     0.38400
H922        H  0.07296541  0.59244132  0.87376624     0.30300
H923        H  0.14333408  0.56510147  0.81890111     0.30300
H924        H  0.08401850  0.46562047  0.83083361     0.30600
Zr925      Zr  0.10931031  0.43340955  0.64647678     2.17500
O926        O  0.08658394  0.45463591  0.66684806    -0.51800
O927        O  0.11507559  0.49321906  0.64051832    -0.75000
O928        O  0.12019213  0.43965522  0.67727528    -0.81700
O929        O  0.07276426  0.41285618  0.61190406    -0.83500
O930        O  0.14815822  0.41772739  0.67960348    -0.79100
O931        O  0.07792911  0.43924238  0.63824900    -0.90700
O932        O  0.13743461  0.49709549  0.62026760    -0.76700
O933        O  0.14023582  0.43941050  0.63992195    -0.86200
O934        O  0.11131885  0.43657118  0.61481544    -0.85900
O935        O  0.12292033  0.38306571  0.65834261    -0.72600
O936        O  0.09701689  0.38186040  0.63488744    -0.84800
Zr937      Zr  0.14509936  0.34088468  0.60830936     2.26400
Zr938      Zr  0.15398278  0.38923872  0.65142310     2.06300
Zr939      Zr  0.10000079  0.38459148  0.60320643     2.10000
Zr940      Zr  0.14212668  0.44172727  0.60822728     1.78800
O941        O  0.07745070  0.34086454  0.60011750    -0.93600
O942        O  0.17199205  0.46571647  0.60967698    -0.41400
O943        O  0.13094223  0.39025499  0.59627694    -0.78000
O944        O  0.15698350  0.39314709  0.61966992    -0.96700
O945        O  0.14256575  0.33720035  0.63988187    -0.90000
O946        O  0.11403219  0.33473644  0.61439418    -0.92900
C947        C  0.12631466  0.51008058  0.63116432     1.00900
C948        C  0.06775069  0.43062256  0.62522876     1.13800
C949        C  0.13441929  0.43251644  0.68621379     1.04600
O950        O  0.17885166  0.42759900  0.65618475    -0.95000
O951        O  0.18150619  0.36175581  0.64272325    -0.90800
O952        O  0.17682510  0.33728344  0.61573515    -0.83900
C953        C  0.18688814  0.34607523  0.62880585     1.11200
O954        O  0.09076615  0.33346470  0.67093570    -0.97000
Zr955      Zr  0.11152287  0.33225691  0.64597207     1.88900
O956        O  0.13901921  0.28101074  0.61350848    -0.73600
O957        O  0.16285300  0.35088074  0.67519029    -0.52900
O958        O  0.12515725  0.30630660  0.67211700    -0.97600
O959        O  0.08329318  0.30358039  0.64049536    -0.54800
O960        O  0.11952284  0.27660824  0.63633225    -0.74200
C961        C  0.12940462  0.26366387  0.62428163     0.98200
O962        O  0.16679281  0.31387878  0.58873919    -0.63000
O963        O  0.08835046  0.41691069  0.57812089    -0.57800
O964        O  0.13567958  0.33916099  0.57703461    -0.94500
O965        O  0.10813040  0.36231905  0.57421560    -0.92900
O966        O  0.12695436  0.47192709  0.58433066    -0.93200
O967        O  0.15900851  0.44011775  0.58058880    -0.92000
C968        C  0.12194666  0.34759790  0.56773533     1.17000
H969        H  0.10458524  0.45557080  0.61034117     0.33000
H970        H  0.16926449  0.39647795  0.61630456     0.43800
H971        H  0.10912843  0.31506740  0.60864224     0.37400
H972        H  0.12104131  0.38047180  0.67096425     0.33800
H973        H  0.17079665  0.48840896  0.60430709     0.25600
H974        H  0.17226670  0.36311244  0.68180368     0.31600
H975        H  0.12185704  0.28219534  0.67147806     0.37500
H976        H  0.13324464  0.49378715  0.58349156     0.31900
H977        H  0.07584542  0.40937751  0.57665327     0.30800
H978        H  0.07178772  0.34538201  0.58844041     0.32500
H979        H  0.08470160  0.29263660  0.62875131     0.31500
H980        H  0.16425300  0.41721154  0.58027875     0.35500
H981        H  0.16054338  0.29441860  0.58338629     0.28200
H982        H  0.09185631  0.47461611  0.67271218     0.32400
H983        H  0.08996481  0.30991597  0.67522890     0.35300
H984        H  0.08744376  0.44040391  0.58243379     0.27900
H985        H  0.16883849  0.32973038  0.57875741     0.40700
H986        H  0.17383130  0.45033735  0.65407042     0.30800
H987        H  0.17404850  0.47007252  0.62247972     0.38400
H988        H  0.07457315  0.32192198  0.63836187     0.30300
H989        H  0.15255651  0.35035738  0.68341730     0.30300
H990        H  0.08553579  0.43744620  0.67635460     0.30600
Zr991      Zr  0.11294646  0.93425843  0.64646595     2.17500
O992        O  0.09002610  0.95498328  0.66673572    -0.51800
O993        O  0.11884920  0.99354988  0.64016887    -0.75000
O994        O  0.12394674  0.94344689  0.67686378    -0.81700
O995        O  0.07731948  0.91480634  0.61113894    -0.83500
O996        O  0.15031046  0.91619671  0.68077012    -0.79100
O997        O  0.08181407  0.94134889  0.63749758    -0.90700
O998        O  0.13873860  0.99594829  0.61747648    -0.76700
O999        O  0.14427600  0.93723523  0.64144240    -0.86200
O1000       O  0.11660562  0.93718827  0.61493760    -0.85900
O1001       O  0.12488014  0.88328284  0.65922060    -0.72600
O1002       O  0.09985467  0.88401069  0.63439532    -0.84800
Zr1003     Zr  0.14788524  0.83825262  0.61028243     2.26400
Zr1004     Zr  0.15630998  0.88589645  0.65343463     2.06300
Zr1005     Zr  0.10450219  0.88624880  0.60295576     2.10000
Zr1006     Zr  0.14781463  0.93951884  0.60996969     1.78800
O1007       O  0.08135160  0.84478037  0.59702879    -0.93600
O1008       O  0.17578217  0.96607452  0.61875314    -0.41400
O1009       O  0.13578426  0.88897739  0.59759733    -0.78000
O1010       O  0.16075492  0.88955699  0.62187508    -0.96700
O1011       O  0.14382189  0.83501910  0.64169313    -0.90000
O1012       O  0.11650552  0.83534111  0.61508515    -0.92900
C1013       C  0.12832820  0.00977129  0.62881560     1.00900
C1014       C  0.07192253  0.93269166  0.62426410     1.13800
C1015       C  0.13743188  0.93461218  0.68644257     1.04600
O1016       O  0.18158360  0.92234057  0.66000552    -0.95000
O1017       O  0.18369480  0.85653047  0.64592317    -0.90800
O1018       O  0.17940652  0.83367112  0.61850873    -0.83900
C1019       C  0.18930056  0.84171952  0.63182921     1.11200
O1020       O  0.08896787  0.84077651  0.66869707    -0.97000
Zr1021     Zr  0.11238772  0.83364775  0.64653772     1.88900
O1022       O  0.14099534  0.77940122  0.61745691    -0.73600
O1023       O  0.16239029  0.84702328  0.67784254    -0.52900
O1024       O  0.12080031  0.80891871  0.67504666    -0.97600
O1025       O  0.08485285  0.80547945  0.63776611    -0.54800
O1026       O  0.12135556  0.77685738  0.64036925    -0.74200
C1027       C  0.13150092  0.76312924  0.62881082     0.98200
O1028       O  0.16603943  0.80881103  0.58825255    -0.63000
O1029       O  0.09492217  0.92163353  0.57812209    -0.57800
O1030       O  0.13948110  0.83455939  0.57884543    -0.94500
O1031       O  0.11329039  0.86232860  0.57466810    -0.92900
O1032       O  0.13916949  0.96512576  0.58177901    -0.93200
O1033       O  0.16987726  0.93571990  0.58629650    -0.92000
C1034       C  0.12654206  0.84490809  0.56897223     1.17000
H1035       H  0.11055504  0.95658201  0.60999364     0.33000
H1036       H  0.17319022  0.89225559  0.61903472     0.43800
H1037       H  0.11146037  0.81586664  0.60925924     0.37400
H1038       H  0.12247639  0.88179160  0.67180765     0.33800
H1039       H  0.17719600  0.98526755  0.61044690     0.25600
H1040       H  0.17286452  0.85672405  0.68403026     0.31600
H1041       H  0.13333096  0.80159326  0.67348148     0.37500
H1042       H  0.13357133  0.94660826  0.57494829     0.31900
H1043       H  0.08288259  0.91332791  0.57492809     0.30800
H1044       H  0.07388412  0.85507930  0.58759185     0.32500
H1045       H  0.08817671  0.79038567  0.62783108     0.31500
H1046       H  0.17287103  0.91145103  0.58560365     0.35500
H1047       H  0.17613100  0.82396926  0.58541769     0.28200
H1048       H  0.09447163  0.97686054  0.67123492     0.32400
H1049       H  0.08562914  0.81770971  0.67244349     0.35300
H1050       H  0.09282448  0.94425955  0.58323978     0.27900
H1051       H  0.17144863  0.78939428  0.59456594     0.40700
H1052       H  0.18834472  0.92368958  0.64872047     0.30800
H1053       H  0.17322003  0.97672594  0.63038047     0.38400
H1054       H  0.07753803  0.82337344  0.63214964     0.30300
H1055       H  0.15238660  0.85016597  0.68626939     0.30300
H1056       H  0.09018923  0.93966327  0.67714586     0.30600
Zr1057     Zr  0.36387473  0.08283202  0.11062193     2.17500
O1058       O  0.34227183  0.04807412  0.09467378    -0.51800
O1059       O  0.37069803  0.02418994  0.11849365    -0.75000
O1060       O  0.37010667  0.07674392  0.07859593    -0.81700
O1061       O  0.33038510  0.11001929  0.14660373    -0.83500
O1062       O  0.39730394  0.09923448  0.07282171    -0.79100
O1063       O  0.33250661  0.08567554  0.11940552    -0.90700
O1064       O  0.39593763  0.02317234  0.13520403    -0.76700
O1065       O  0.39558413  0.08054802  0.11269993    -0.86200
O1066       O  0.37078366  0.08090897  0.14173136    -0.85900
O1067       O  0.37400333  0.13389929  0.09639154    -0.72600
O1068       O  0.35217252  0.13363231  0.12345542    -0.84800
Zr1069     Zr  0.40183051  0.18106223  0.14218433     2.26400
Zr1070     Zr  0.40584614  0.13133315  0.09893742     2.06300
Zr1071     Zr  0.35956865  0.13215177  0.15432709     2.10000
Zr1072     Zr  0.40248588  0.08014034  0.14371391     1.78800
O1073       O  0.33558849  0.16783286  0.16543138    -0.93600
O1074       O  0.43092951  0.05475588  0.13549279    -0.41400
O1075       O  0.39135793  0.13086373  0.15673199    -0.78000
O1076       O  0.41384203  0.12976950  0.12987362    -0.96700
O1077       O  0.39442962  0.18256210  0.11137501    -0.90000
O1078       O  0.37006824  0.18299192  0.14071188    -0.92900
C1079       C  0.38340465  0.00865856  0.12660018     1.00900
C1080       C  0.32343780  0.09559711  0.13294315     1.13800
C1081       C  0.38308995  0.08370064  0.06802215     1.04600
O1082       O  0.43110977  0.09555093  0.09124754    -0.95000
O1083       O  0.43316780  0.16296059  0.10250539    -0.90800
O1084       O  0.43120682  0.19071627  0.12873986    -0.83900
C1085       C  0.43973883  0.18202319  0.11460327     1.11200
O1086       O  0.33653561  0.17727561  0.09096335    -0.97000
Zr1087     Zr  0.36274001  0.18408018  0.10990314     1.88900
O1088       O  0.39512034  0.23988807  0.13478186    -0.73600
O1089       O  0.40870424  0.16769461  0.07295945    -0.52900
O1090       O  0.36764657  0.20738454  0.08031969    -0.97600
O1091       O  0.33641497  0.21186247  0.12211858    -0.54800
O1092       O  0.37288826  0.24112858  0.11423068    -0.74200
C1093       C  0.38461256  0.25554098  0.12400580     0.98200
O1094       O  0.42435035  0.20130363  0.16305778    -0.63000
O1095       O  0.35511775  0.09125943  0.17812813    -0.57800
O1096       O  0.39454426  0.19208047  0.17345371    -0.94500
O1097       O  0.36952312  0.16284589  0.18049207    -0.92900
O1098       O  0.39394992  0.05375073  0.17169486    -0.93200
O1099       O  0.42633041  0.08618262  0.16554574    -0.92000
C1100       C  0.38240020  0.18280799  0.18452841     1.17000
H1101       H  0.36548942  0.06151739  0.14740864     0.33000
H1102       H  0.42662915  0.12870746  0.13132682     0.43800
H1103       H  0.36549070  0.20254067  0.14684986     0.37400
H1104       H  0.37026764  0.13572476  0.08413624     0.33800
H1105       H  0.43109283  0.03256664  0.14153467     0.25600
H1106       H  0.41731511  0.15593196  0.06514472     0.31600
H1107       H  0.37988656  0.21670744  0.08071946     0.37500
H1108       H  0.40182948  0.03379885  0.17275683     0.31900
H1109       H  0.36601684  0.09289198  0.18554300     0.30800
H1110       H  0.33201048  0.15750615  0.17687863     0.32500
H1111       H  0.34103605  0.22991214  0.12994143     0.31500
H1112       H  0.42784804  0.11083040  0.16687567     0.35500
H1113       H  0.43417361  0.18459592  0.16270462     0.28200
H1114       H  0.34922296  0.03031361  0.08854622     0.32400
H1115       H  0.33272735  0.20039948  0.08774582     0.35300
H1116       H  0.34558134  0.10108671  0.18560787     0.27900
H1117       H  0.42933951  0.22215694  0.15782322     0.40700
H1118       H  0.42602352  0.07269718  0.08985219     0.30800
H1119       H  0.42966479  0.04930945  0.12270047     0.38400
H1120       H  0.33120561  0.19511849  0.13038028     0.30300
H1121       H  0.39712902  0.16585563  0.06665757     0.30300
H1122       H  0.33741440  0.06245152  0.08502287     0.30600
Zr1123     Zr  0.36657992  0.58610942  0.10755970     2.17500
O1124       O  0.34441486  0.55942000  0.08834078    -0.51800
O1125       O  0.37271702  0.52649641  0.11275179    -0.75000
O1126       O  0.37591148  0.58203509  0.07625258    -0.81700
O1127       O  0.33157698  0.60652515  0.14336366    -0.83500
O1128       O  0.40237815  0.60896327  0.07303228    -0.79100
O1129       O  0.33486986  0.58628498  0.11527958    -0.90700
O1130       O  0.39685059  0.52148520  0.13089347    -0.76700
O1131       O  0.39804404  0.58255113  0.11177834    -0.86200
O1132       O  0.37140763  0.57901304  0.13881230    -0.85900
O1133       O  0.37782034  0.63874281  0.09619475    -0.72600
O1134       O  0.35434069  0.63476461  0.12198912    -0.84800
Zr1135     Zr  0.40252334  0.67822268  0.14586935     2.26400
Zr1136     Zr  0.40941471  0.63516483  0.10119193     2.06300
Zr1137     Zr  0.35992814  0.62845117  0.15310123     2.10000
Zr1138     Zr  0.40279342  0.57675360  0.14302533     1.78800
O1139       O  0.33547333  0.66428647  0.16293014    -0.93600
O1140       O  0.43240003  0.55490633  0.13620406    -0.41400
O1141       O  0.39143542  0.62595148  0.15762698    -0.78000
O1142       O  0.41508415  0.62847937  0.13240961    -0.96700
O1143       O  0.39721469  0.68455036  0.11478139    -0.90000
O1144       O  0.37103616  0.68098750  0.14220002    -0.92900
C1145       C  0.38461544  0.50908609  0.12096048     1.00900
C1146       C  0.32533171  0.59409573  0.12889472     1.13800
C1147       C  0.38922173  0.59200315  0.06682367     1.04600
O1148       O  0.43389776  0.59770842  0.09332586    -0.95000
O1149       O  0.43661785  0.66454721  0.10878270    -0.90800
O1150       O  0.43260261  0.69018683  0.13551055    -0.83900
C1151       C  0.44210619  0.68240046  0.12191414     1.11200
O1152       O  0.33953268  0.68268059  0.09184841    -0.97000
Zr1153     Zr  0.36571151  0.68671109  0.11108509     1.88900
O1154       O  0.39599621  0.73787896  0.14080814    -0.73600
O1155       O  0.41617849  0.67572487  0.07779833    -0.52900
O1156       O  0.37271803  0.71205180  0.08237721    -0.97600
O1157       O  0.33944712  0.71615233  0.12234031    -0.54800
O1158       O  0.37608962  0.74231638  0.11818628    -0.74200
C1159       C  0.38662540  0.75516999  0.12973175     0.98200
O1160       O  0.42637261  0.69629067  0.16586541    -0.63000
O1161       O  0.35428376  0.58485663  0.17526517    -0.57800
O1162       O  0.39309465  0.68500880  0.17687631    -0.94500
O1163       O  0.36767972  0.65516679  0.18112919    -0.92900
O1164       O  0.39135642  0.54626809  0.16872684    -0.93200
O1165       O  0.42357808  0.57501978  0.16797955    -0.92000
C1166       C  0.38019562  0.67456219  0.18670130     1.17000
H1167       H  0.36561981  0.55888608  0.14312197     0.33000
H1168       H  0.42771622  0.62699410  0.13479323     0.43800
H1169       H  0.36605808  0.69958763  0.14882866     0.37400
H1170       H  0.37496456  0.64202624  0.08378689     0.33800
H1171       H  0.43285676  0.53245900  0.14195791     0.25600
H1172       H  0.42411135  0.66349383  0.06948536     0.31600
H1173       H  0.36817622  0.73544164  0.08314151     0.37500
H1174       H  0.39702212  0.52375316  0.16806945     0.31900
H1175       H  0.34568060  0.59522605  0.18361065     0.30800
H1176       H  0.32948304  0.65125346  0.17243055     0.32500
H1177       H  0.34390722  0.73173572  0.13160579     0.31500
H1178       H  0.42284992  0.59776726  0.17332293     0.35500
H1179       H  0.42197112  0.71693803  0.17181794     0.28200
H1180       H  0.35046193  0.53978256  0.08290284     0.32400
H1181       H  0.33721219  0.70586792  0.08754102     0.35300
H1182       H  0.34727265  0.56738496  0.16899189     0.27900
H1183       H  0.42707658  0.67898311  0.17534616     0.40700
H1184       H  0.44182389  0.59765681  0.10388170     0.30800
H1185       H  0.43199104  0.54989899  0.12331126     0.38400
H1186       H  0.33275195  0.69877882  0.12901724     0.30300
H1187       H  0.40484398  0.67857223  0.07116794     0.30300
H1188       H  0.34226194  0.57531617  0.07838815     0.30600
Zr1189     Zr  0.36357869  0.33720383  0.39299458     2.17500
O1190       O  0.34107268  0.36621569  0.41076437    -0.51800
O1191       O  0.37017778  0.39663577  0.38676386    -0.75000
O1192       O  0.37260456  0.34330473  0.42442499    -0.81700
O1193       O  0.32806687  0.30862930  0.35887683    -0.83500
O1194       O  0.39970444  0.31862100  0.42811781    -0.79100
O1195       O  0.33162560  0.33511915  0.38545296    -0.90700
O1196       O  0.39165801  0.40009302  0.36562251    -0.76700
O1197       O  0.39506194  0.34070686  0.38904712    -0.86200
O1198       O  0.36856717  0.34141490  0.36158340    -0.85900
O1199       O  0.37527168  0.28566421  0.40556133    -0.72600
O1200       O  0.35186984  0.28677288  0.37987504    -0.84800
Zr1201     Zr  0.40057552  0.24327989  0.35667869     2.26400
Zr1202     Zr  0.40686520  0.28924520  0.40083317     2.06300
Zr1203     Zr  0.35709520  0.29069559  0.34860998     2.10000
Zr1204     Zr  0.40014063  0.34387456  0.35781543     1.78800
O1205       O  0.33517353  0.25030675  0.33778139    -0.93600
O1206       O  0.42766556  0.36910109  0.36875736    -0.41400
O1207       O  0.38850785  0.29419668  0.34433917    -0.78000
O1208       O  0.41295272  0.29364366  0.36957183    -0.96700
O1209       O  0.39542457  0.23857413  0.38788463    -0.90000
O1210       O  0.36908683  0.23943185  0.36037949    -0.92900
C1211       C  0.38068576  0.41339636  0.37654344     1.00900
C1212       C  0.32188608  0.32357596  0.37267698     1.13800
C1213       C  0.38620842  0.33506907  0.43402816     1.04600
O1214       O  0.43181016  0.32599518  0.40810991    -0.95000
O1215       O  0.43417516  0.25921002  0.39458257    -0.90800
O1216       O  0.43076885  0.23354310  0.36782793    -0.83900
C1217       C  0.44006260  0.24158990  0.38155975     1.11200
O1218       O  0.34053805  0.23558511  0.41410952    -0.97000
Zr1219     Zr  0.36399441  0.23597631  0.39165342     1.88900
O1220       O  0.39408745  0.18380847  0.36180991    -0.73600
O1221       O  0.41288926  0.25050558  0.42529213    -0.52900
O1222       O  0.37418406  0.20970653  0.41923007    -0.97600
O1223       O  0.33582688  0.21084861  0.38221850    -0.54800
O1224       O  0.37234199  0.18031089  0.38267189    -0.74200
C1225       C  0.38334332  0.16708282  0.37174945     0.98200
O1226       O  0.42118965  0.22332280  0.33387471    -0.63000
O1227       O  0.34763141  0.33275005  0.32686337    -0.57800
O1228       O  0.39300645  0.23955718  0.32503069    -0.94500
O1229       O  0.36747092  0.26894867  0.32020252    -0.92900
O1230       O  0.39356427  0.37292155  0.32998909    -0.93200
O1231       O  0.42373443  0.33957607  0.33567628    -0.92000
C1232       C  0.38070879  0.25119818  0.31471594     1.17000
H1233       H  0.36271302  0.36098494  0.35661636     0.33000
H1234       H  0.42559154  0.29542609  0.36732551     0.43800
H1235       H  0.36431051  0.22026217  0.35407037     0.37400
H1236       H  0.37241494  0.28317232  0.41800734     0.33800
H1237       H  0.42958225  0.38899211  0.36103461     0.25600
H1238       H  0.42236394  0.26163955  0.43234980     0.31600
H1239       H  0.38407936  0.19459049  0.41569565     0.37500
H1240       H  0.38966814  0.35492729  0.32174026     0.31900
H1241       H  0.33960080  0.32043138  0.31867404     0.30800
H1242       H  0.33183864  0.25842644  0.32576148     0.32500
H1243       H  0.33712960  0.18642944  0.38459857     0.31500
H1244       H  0.42092916  0.31880954  0.32894365     0.35500
H1245       H  0.43137893  0.23918613  0.33399452     0.28200
H1246       H  0.34719867  0.38590669  0.41604121     0.32400
H1247       H  0.33958920  0.21189980  0.41816229     0.35300
H1248       H  0.33963765  0.34825799  0.33340526     0.27900
H1249       H  0.42605402  0.20169469  0.33833911     0.40700
H1250       H  0.43933640  0.32617050  0.39729729     0.30800
H1251       H  0.42452531  0.37873498  0.38048972     0.38400
H1252       H  0.33571849  0.21266944  0.36908534     0.30300
H1253       H  0.40215689  0.25159746  0.43292917     0.30300
H1254       H  0.33851862  0.35111308  0.42094656     0.30600
Zr1255     Zr  0.36337241  0.83883374  0.39319255     2.17500
O1256       O  0.34056115  0.86537304  0.41166888    -0.51800
O1257       O  0.36914127  0.89807834  0.38630670    -0.75000
O1258       O  0.37247190  0.84650363  0.42451066    -0.81700
O1259       O  0.32902464  0.81565830  0.35704451    -0.83500
O1260       O  0.39943528  0.82174071  0.42869351    -0.79100
O1261       O  0.33177320  0.83810865  0.38470705    -0.90700
O1262       O  0.39039792  0.90096866  0.36493950    -0.76700
O1263       O  0.39485953  0.84268854  0.38937393    -0.86200
O1264       O  0.36865366  0.84259700  0.36182547    -0.85900
O1265       O  0.37508670  0.78779729  0.40618260    -0.72600
O1266       O  0.35158751  0.78830969  0.38011581    -0.84800
Zr1267     Zr  0.40098704  0.74433237  0.35817950     2.26400
Zr1268     Zr  0.40665905  0.79178144  0.40177251     2.06300
Zr1269     Zr  0.35758354  0.79168888  0.34891461     2.10000
Zr1270     Zr  0.40016259  0.84504545  0.35813325     1.78800
O1271       O  0.33332960  0.75512349  0.33939053    -0.93600
O1272       O  0.42659299  0.87496655  0.36847278    -0.41400
O1273       O  0.38914444  0.79461609  0.34477821    -0.78000
O1274       O  0.41292106  0.79537247  0.37063505    -0.96700
O1275       O  0.39526803  0.74090571  0.38926858    -0.90000
O1276       O  0.36944960  0.74089003  0.36134600    -0.92900
C1277       C  0.37927329  0.91452937  0.37561657     1.00900
C1278       C  0.32246386  0.82941233  0.37104337     1.13800
C1279       C  0.38602311  0.83868448  0.43428250     1.04600
O1280       O  0.43144683  0.82854680  0.40963506    -0.95000
O1281       O  0.43388690  0.76124192  0.39597646    -0.90800
O1282       O  0.43076926  0.73311067  0.36986576    -0.83900
C1283       C  0.43984569  0.74210876  0.38359348     1.11200
O1284       O  0.34071345  0.74212080  0.41520671    -0.97000
Zr1285     Zr  0.36376409  0.73791814  0.39243975     1.88900
O1286       O  0.39510913  0.68473957  0.36415306    -0.73600
O1287       O  0.41182538  0.75281477  0.42628860    -0.52900
O1288       O  0.37204924  0.70832148  0.41968074    -0.97600
O1289       O  0.33572818  0.71340466  0.38224158    -0.54800
O1290       O  0.37248666  0.68178999  0.38401565    -0.74200
C1291       C  0.38411523  0.66804520  0.37387371     0.98200
O1292       O  0.42566507  0.73110904  0.33819585    -0.63000
O1293       O  0.35208077  0.83230867  0.32521185    -0.57800
O1294       O  0.39156928  0.73348000  0.32754853    -0.94500
O1295       O  0.36610369  0.76248834  0.32180469    -0.92900
O1296       O  0.39229951  0.86810129  0.32910095    -0.93200
O1297       O  0.42506406  0.84309125  0.33736250    -0.92000
C1298       C  0.37886898  0.74277425  0.31710281     1.17000
H1299       H  0.36268524  0.86182643  0.35661561     0.33000
H1300       H  0.42561199  0.79685747  0.36861925     0.43800
H1301       H  0.36482626  0.72152655  0.35509504     0.37400
H1302       H  0.37215887  0.78575801  0.41863459     0.33800
H1303       H  0.42703256  0.89572655  0.36116318     0.25600
H1304       H  0.42042779  0.76453706  0.43414184     0.31600
H1305       H  0.38463240  0.70149169  0.41790787     0.37500
H1306       H  0.39780382  0.89075661  0.32885475     0.31900
H1307       H  0.36300143  0.83163443  0.31783163     0.30800
H1308       H  0.32848451  0.76595733  0.32852676     0.32500
H1309       H  0.33553741  0.69049647  0.38746557     0.31500
H1310       H  0.42935416  0.81950031  0.33781332     0.35500
H1311       H  0.42283813  0.70890587  0.33291147     0.28200
H1312       H  0.34631230  0.88509350  0.41732605     0.32400
H1313       H  0.33709010  0.71867285  0.41786872     0.35300
H1314       H  0.34280373  0.82169616  0.31768919     0.27900
H1315       H  0.42478552  0.74742281  0.32824445     0.40700
H1316       H  0.43844775  0.83084639  0.39854256     0.30800
H1317       H  0.42349280  0.88298270  0.38055226     0.38400
H1318       H  0.33725744  0.70956044  0.36932786     0.30300
H1319       H  0.40050948  0.75276545  0.43306213     0.30300
H1320       H  0.33823507  0.84939018  0.42152909     0.30600
Zr1321     Zr  0.64700182  0.34264268  0.10843672     2.17500
O1322       O  0.66880441  0.37781957  0.09305537    -0.51800
O1323       O  0.64104817  0.40097652  0.11732337    -0.75000
O1324       O  0.63973804  0.35138240  0.07685675    -0.81700
O1325       O  0.68125563  0.31082267  0.14290815    -0.83500
O1326       O  0.61216372  0.32994184  0.07146129    -0.79100
O1327       O  0.67863469  0.33906043  0.11670762    -0.90700
O1328       O  0.61854949  0.40275528  0.13736881    -0.76700
O1329       O  0.61545441  0.34692833  0.11160603    -0.86200
O1330       O  0.64107169  0.34286910  0.13967470    -0.85900
O1331       O  0.63532510  0.29315676  0.09371816    -0.72600
O1332       O  0.65838219  0.29026428  0.11978758    -0.84800
Zr1333     Zr  0.60838034  0.24520806  0.14003029     2.26400
Zr1334     Zr  0.60363454  0.29779077  0.09755191     2.06300
Zr1335     Zr  0.65199067  0.29026648  0.15086755     2.10000
Zr1336     Zr  0.60944167  0.34571338  0.14272584     1.78800
O1337       O  0.67412079  0.24896125  0.16036293    -0.93600
O1338       O  0.58267220  0.37566356  0.13311980    -0.41400
O1339       O  0.62042120  0.29388218  0.15453229    -0.78000
O1340       O  0.59666121  0.29756364  0.12868119    -0.96700
O1341       O  0.61451531  0.24515333  0.10889761    -0.90000
O1342       O  0.63995688  0.24101130  0.13710541    -0.92900
C1343       C  0.63038784  0.41694908  0.12771654     1.00900
C1344       C  0.68789227  0.32699932  0.12970171     1.13800
C1345       C  0.62632074  0.34556057  0.06660633     1.04600
O1346       O  0.58015497  0.33953355  0.09342225    -0.95000
O1347       O  0.57621714  0.26672705  0.10138067    -0.90800
O1348       O  0.57895224  0.23580452  0.12663953    -0.83900
C1349       C  0.57004106  0.24637191  0.11307645     1.11200
O1350       O  0.67086215  0.24510742  0.08521456    -0.97000
Zr1351     Zr  0.64601868  0.24141780  0.10604000     1.88900
O1352       O  0.61493558  0.18643777  0.13324582    -0.73600
O1353       O  0.59571957  0.26574967  0.07104227    -0.52900
O1354       O  0.63855437  0.21952781  0.07668003    -0.97600
O1355       O  0.67291052  0.21284541  0.11655353    -0.54800
O1356       O  0.63569436  0.18485681  0.11138771    -0.74200
C1357       C  0.62495308  0.17051634  0.12222348     0.98200
O1358       O  0.58553951  0.22567807  0.16071790    -0.63000
O1359       O  0.65959577  0.32866388  0.17496449    -0.57800
O1360       O  0.61602261  0.23563135  0.17155513    -0.94500
O1361       O  0.64200892  0.26244936  0.17765943    -0.92900
O1362       O  0.61667679  0.36621096  0.17240596    -0.93200
O1363       O  0.58505059  0.33943303  0.16383028    -0.92000
C1364       C  0.62862673  0.24438666  0.18232241     1.17000
H1365       H  0.64698475  0.36139270  0.14554730     0.33000
H1366       H  0.58393838  0.29897894  0.13051450     0.43800
H1367       H  0.64444807  0.22093921  0.14286389     0.37400
H1368       H  0.63855581  0.29181741  0.08132081     0.33800
H1369       H  0.58131923  0.39437284  0.14171857     0.25600
H1370       H  0.58729795  0.28042760  0.06443493     0.31600
H1371       H  0.62540144  0.21730783  0.07673415     0.37500
H1372       H  0.62651660  0.38248458  0.17066783     0.31900
H1373       H  0.64855170  0.33048151  0.18210865     0.30800
H1374       H  0.68156925  0.26090551  0.16922856     0.32500
H1375       H  0.66890044  0.19730825  0.12604425     0.31500
H1376       H  0.58230360  0.31503751  0.16375917     0.35500
H1377       H  0.57567259  0.24227164  0.16000220     0.28200
H1378       H  0.66192015  0.39593296  0.08708940     0.32400
H1379       H  0.67363403  0.22158611  0.08179425     0.35300
H1380       H  0.66793263  0.31572684  0.18260582     0.27900
H1381       H  0.58066583  0.20456108  0.15567797     0.40700
H1382       H  0.57192520  0.33595194  0.10353412     0.30800
H1383       H  0.58608312  0.38687384  0.12185251     0.38400
H1384       H  0.67975313  0.23047570  0.12289354     0.30300
H1385       H  0.60665394  0.26543609  0.06367421     0.30300
H1386       H  0.67358067  0.36380366  0.08326987     0.30600
Zr1387     Zr  0.64754409  0.84205125  0.11350086     2.17500
O1388       O  0.67115378  0.86890980  0.09627953    -0.51800
O1389       O  0.63957295  0.90091099  0.11921543    -0.75000
O1390       O  0.63927606  0.85002831  0.08202588    -0.81700
O1391       O  0.68217574  0.81635854  0.14874428    -0.83500
O1392       O  0.61226754  0.82560565  0.07811584    -0.79100
O1393       O  0.67873063  0.84516806  0.12290080    -0.90700
O1394       O  0.61760525  0.90336980  0.13989819    -0.76700
O1395       O  0.61599025  0.84405809  0.11682494    -0.86200
O1396       O  0.64185371  0.84597836  0.14475079    -0.85900
O1397       O  0.63715144  0.79023029  0.10035812    -0.72600
O1398       O  0.65984131  0.79216749  0.12688144    -0.84800
Zr1399     Zr  0.61131187  0.74595972  0.14824487     2.26400
Zr1400     Zr  0.60543758  0.79240770  0.10426831     2.06300
Zr1401     Zr  0.65351877  0.79562590  0.15792432     2.10000
Zr1402     Zr  0.61030101  0.84666227  0.14799789     1.78800
O1403       O  0.67749213  0.76171071  0.17064307    -0.93600
O1404       O  0.58234790  0.87223448  0.13831266    -0.41400
O1405       O  0.62194470  0.79694928  0.16169411    -0.78000
O1406       O  0.59876138  0.79622921  0.13534729    -0.96700
O1407       O  0.61741833  0.74208385  0.11719768    -0.90000
O1408       O  0.64295548  0.74392443  0.14557651    -0.92900
C1409       C  0.62855770  0.91714617  0.12913790     1.00900
C1410       C  0.68830939  0.83388345  0.13583741     1.13800
C1411       C  0.62555544  0.84285263  0.07241744     1.04600
O1412       O  0.57973228  0.82592522  0.09519636    -0.95000
O1413       O  0.57828734  0.76122480  0.11016099    -0.90800
O1414       O  0.58162675  0.73453302  0.13670121    -0.83900
C1415       C  0.57244343  0.74273031  0.12291110     1.11200
O1416       O  0.67363506  0.74667471  0.09354721    -0.97000
Zr1417     Zr  0.64904376  0.74091654  0.11453126     1.88900
O1418       O  0.61892032  0.68684676  0.14334980    -0.73600
O1419       O  0.60241646  0.75388246  0.07925037    -0.52900
O1420       O  0.64121123  0.71262868  0.08683063    -0.97600
O1421       O  0.67746182  0.71722940  0.12435430    -0.54800
O1422       O  0.64175722  0.68425894  0.12359494    -0.74200
C1423       C  0.63037439  0.67050428  0.13400360     0.98200
O1424       O  0.58660594  0.72765435  0.16704433    -0.63000
O1425       O  0.65835225  0.83913112  0.18029157    -0.57800
O1426       O  0.61929976  0.73877000  0.17954207    -0.94500
O1427       O  0.64473897  0.76768206  0.18507535    -0.92900
O1428       O  0.61839007  0.87388311  0.17589483    -0.93200
O1429       O  0.58651341  0.84152714  0.16985692    -0.92000
C1430       C  0.63176311  0.74887091  0.18999309     1.17000
H1431       H  0.64733506  0.86579953  0.14979383     0.33000
H1432       H  0.58604593  0.79728689  0.13725416     0.43800
H1433       H  0.64795384  0.72502437  0.15199990     0.37400
H1434       H  0.64025868  0.78864869  0.08792983     0.33800
H1435       H  0.58112237  0.89279762  0.14566207     0.25600
H1436       H  0.59240831  0.76320375  0.07215396     0.31600
H1437       H  0.62971429  0.70131192  0.08929837     0.37500
H1438       H  0.61084571  0.89436661  0.17637213     0.31900
H1439       H  0.66308486  0.82694427  0.19079703     0.30800
H1440       H  0.68280645  0.77608190  0.18001776     0.32500
H1441       H  0.67451231  0.70242127  0.13453609     0.31500
H1442       H  0.58480137  0.81694450  0.17129792     0.35500
H1443       H  0.59053214  0.70636255  0.17271727     0.28200
H1444       H  0.66576114  0.88956825  0.09117769     0.32400
H1445       H  0.67576632  0.72378686  0.08876713     0.35300
H1446       H  0.66861472  0.85237969  0.17588046     0.27900
H1447       H  0.58578653  0.74425176  0.17684312     0.40700
H1448       H  0.57271690  0.82908926  0.10621944     0.30800
H1449       H  0.58480703  0.88077347  0.12617796     0.38400
H1450       H  0.68390220  0.73643051  0.12977339     0.30300
H1451       H  0.61311958  0.75788495  0.07184488     0.30300
H1452       H  0.67339045  0.85391844  0.08599484     0.30600
Zr1453     Zr  0.64727426  0.09410759  0.39248069     2.17500
O1454       O  0.67006068  0.06726069  0.41094137    -0.51800
O1455       O  0.64077151  0.03488320  0.38670652    -0.75000
O1456       O  0.63813435  0.08787869  0.42398907    -0.81700
O1457       O  0.68183007  0.11491481  0.35617469    -0.83500
O1458       O  0.61170216  0.11476318  0.42777724    -0.79100
O1459       O  0.67854070  0.09146069  0.38353962    -0.90700
O1460       O  0.61662338  0.03153032  0.36857222    -0.76700
O1461       O  0.61576536  0.09184083  0.38882476    -0.86200
O1462       O  0.64192623  0.08886103  0.36117764    -0.85900
O1463       O  0.63676688  0.14654313  0.40464950    -0.72600
O1464       O  0.65962638  0.14307816  0.37836959    -0.84800
Zr1465     Zr  0.61098736  0.18848318  0.35565464     2.26400
Zr1466     Zr  0.60509056  0.14432054  0.40038111     2.06300
Zr1467     Zr  0.65352992  0.13849909  0.34722170     2.10000
Zr1468     Zr  0.61045564  0.08743123  0.35762143     1.78800
O1469       O  0.67792635  0.17387866  0.33684561    -0.93600
O1470       O  0.58122215  0.06593555  0.36595933    -0.41400
O1471       O  0.62194666  0.13664050  0.34331203    -0.78000
O1472       O  0.59854805  0.13863952  0.36922260    -0.96700
O1473       O  0.61700915  0.19391166  0.38671143    -0.90000
O1474       O  0.64264514  0.19080803  0.35869136    -0.92900
C1475       C  0.62873900  0.01819469  0.37834796     1.00900
C1476       C  0.68799150  0.09976388  0.36994887     1.13800
C1477       C  0.62468005  0.09678533  0.43361165     1.04600
O1478       O  0.58017939  0.11038725  0.41085248    -0.95000
O1479       O  0.57758399  0.17348378  0.39368401    -0.90800
O1480       O  0.58079953  0.19881533  0.36671342    -0.83900
C1481       C  0.57164018  0.19088936  0.38055593     1.11200
O1482       O  0.67283436  0.19282058  0.41150757    -0.97000
Zr1483     Zr  0.64861069  0.19494373  0.38980243     1.88900
O1484       O  0.61912355  0.24767001  0.35975056    -0.73600
O1485       O  0.60169484  0.18602935  0.42389843    -0.52900
O1486       O  0.63985788  0.22340820  0.41716041    -0.97600
O1487       O  0.67729731  0.21682031  0.37985919    -0.54800
O1488       O  0.64136962  0.25111413  0.38017418    -0.74200
C1489       C  0.63028640  0.26443285  0.36925519     0.98200
O1490       O  0.58733797  0.21292108  0.33730164    -0.63000
O1491       O  0.65909652  0.09646955  0.32424692    -0.57800
O1492       O  0.61819078  0.19013050  0.32371846    -0.94500
O1493       O  0.64461135  0.16377149  0.31912720    -0.92900
O1494       O  0.62014006  0.05488528  0.33191507    -0.93200
O1495       O  0.58941085  0.09021514  0.33289533    -0.92000
C1496       C  0.63096844  0.18026530  0.31351323     1.17000
H1497       H  0.64751674  0.06882903  0.35646167     0.33000
H1498       H  0.58587317  0.13706999  0.36712231     0.43800
H1499       H  0.64765483  0.20939213  0.35207310     0.37400
H1500       H  0.63983495  0.14886693  0.41706653     0.33800
H1501       H  0.58002615  0.04446101  0.35937656     0.25600
H1502       H  0.59160203  0.17766923  0.43114193     0.31600
H1503       H  0.64424931  0.24678940  0.41585773     0.37500
H1504       H  0.62278038  0.07188274  0.32263204     0.31900
H1505       H  0.66736052  0.10760500  0.31583922     0.30800
H1506       H  0.68338012  0.16108509  0.32693805     0.32500
H1507       H  0.67458918  0.23016734  0.36904799     0.31500
H1508       H  0.59148843  0.11254751  0.32739209     0.35500
H1509       H  0.59285454  0.23205964  0.33089464     0.28200
H1510       H  0.66431408  0.04705277  0.41610812     0.32400
H1511       H  0.67478761  0.21639579  0.41533386     0.35300
H1512       H  0.66646675  0.07889348  0.33005945     0.27900
H1513       H  0.58461692  0.19599883  0.32801255     0.40700
H1514       H  0.57288969  0.10598437  0.40010806     0.30800
H1515       H  0.58258595  0.05901911  0.37855370     0.38400
H1516       H  0.68382061  0.19683768  0.37539093     0.30300
H1517       H  0.61229466  0.18297432  0.43162597     0.30300
H1518       H  0.67205450  0.08262198  0.42112666     0.30600
Zr1519     Zr  0.64771207  0.59307589  0.39608356     2.17500
O1520       O  0.66982374  0.56226724  0.41366860    -0.51800
O1521       O  0.64259895  0.53428584  0.38698786    -0.75000
O1522       O  0.63860071  0.58377260  0.42716208    -0.81700
O1523       O  0.68330084  0.62378029  0.36318204    -0.83500
O1524       O  0.61099402  0.60597529  0.43103617    -0.79100
O1525       O  0.67964712  0.59650257  0.38946170    -0.90700
O1526       O  0.62114856  0.53234515  0.36575801    -0.76700
O1527       O  0.61634547  0.58856460  0.39143054    -0.86200
O1528       O  0.64327419  0.59185613  0.36456875    -0.85900
O1529       O  0.63536289  0.64303776  0.40973596    -0.72600
O1530       O  0.65918812  0.64546964  0.38486147    -0.84800
Zr1531     Zr  0.61035673  0.68911873  0.36184854     2.26400
Zr1532     Zr  0.60392716  0.63821718  0.40458794     2.06300
Zr1533     Zr  0.65448417  0.64415743  0.35347668     2.10000
Zr1534     Zr  0.61182337  0.58883222  0.35998593     1.78800
O1535       O  0.67711963  0.68506600  0.34500305    -0.93600
O1536       O  0.58474927  0.55929500  0.36878624    -0.41400
O1537       O  0.62311096  0.64025393  0.34810894    -0.78000
O1538       O  0.59844853  0.63701499  0.37315468    -0.96700
O1539       O  0.61482091  0.69070371  0.39327287    -0.90000
O1540       O  0.64171272  0.69395422  0.36615751    -0.92900
C1541       C  0.63253161  0.51821067  0.37599543     1.00900
C1542       C  0.68942357  0.60790932  0.37674939     1.13800
C1543       C  0.62474968  0.59002354  0.43672843     1.04600
O1544       O  0.57897473  0.60095052  0.41106984    -0.95000
O1545       O  0.57650134  0.66800583  0.39822269    -0.90800
O1546       O  0.58011370  0.69758320  0.37252434    -0.83900
C1547       C  0.57077436  0.68740947  0.38578167     1.11200
O1548       O  0.67116823  0.69199374  0.41825285    -0.97000
Zr1549     Zr  0.64613881  0.69494146  0.39751934     1.88900
O1550       O  0.61648897  0.74838170  0.36795783    -0.73600
O1551       O  0.59829101  0.67335525  0.43054378    -0.52900
O1552       O  0.63886051  0.71643239  0.42698978    -0.97600
O1553       O  0.67200924  0.72641214  0.38704347    -0.54800
O1554       O  0.63424299  0.75092909  0.39242891    -0.74200
C1555       C  0.62463560  0.76467739  0.38029264     0.98200
O1556       O  0.58624808  0.70928228  0.34266232    -0.63000
O1557       O  0.66349070  0.60555944  0.32989418    -0.57800
O1558       O  0.61917720  0.69679421  0.33075694    -0.94500
O1559       O  0.64548809  0.67010696  0.32582904    -0.92900
O1560       O  0.61982678  0.56582218  0.33106145    -0.93200
O1561       O  0.58813915  0.59405401  0.33789179    -0.92000
C1562       C  0.63222154  0.68804546  0.32066370     1.17000
H1563       H  0.64947750  0.57318509  0.35912143     0.33000
H1564       H  0.58585941  0.63509152  0.37064155     0.43800
H1565       H  0.64632707  0.71388549  0.36040685     0.37400
H1566       H  0.63804898  0.64426788  0.42228103     0.33800
H1567       H  0.58389022  0.53998881  0.36049403     0.25600
H1568       H  0.58926800  0.66080914  0.43750311     0.31600
H1569       H  0.62613312  0.72299004  0.42621071     0.37500
H1570       H  0.63018130  0.57937428  0.32716708     0.31900
H1571       H  0.67118988  0.61916023  0.32197405     0.30800
H1572       H  0.68540634  0.67251605  0.33718388     0.32500
H1573       H  0.66717627  0.74473900  0.37948579     0.31500
H1574       H  0.58691541  0.61861156  0.33588557     0.35500
H1575       H  0.59082722  0.72968616  0.33661605     0.28200
H1576       H  0.66348968  0.54263901  0.41876770     0.32400
H1577       H  0.67390686  0.71562331  0.42146157     0.35300
H1578       H  0.67173906  0.58927222  0.33558095     0.27900
H1579       H  0.58495397  0.69216976  0.33316619     0.40700
H1580       H  0.58426328  0.57810367  0.41172065     0.30800
H1581       H  0.58766394  0.54891494  0.38042363     0.38400
H1582       H  0.67804791  0.71101927  0.37862572     0.30300
H1583       H  0.60932076  0.67183490  0.43778300     0.30300
H1584       H  0.67263661  0.57685628  0.42398379     0.30600
Zr1585     Zr  0.86234100  0.09868263  0.39504770     2.17500
O1586       O  0.83900243  0.12535190  0.41281148    -0.51800
O1587       O  0.86844568  0.15813540  0.38875788    -0.75000
O1588       O  0.87036624  0.10489506  0.42668103    -0.81700
O1589       O  0.82861732  0.07300027  0.35880063    -0.83500
O1590       O  0.89734938  0.08024952  0.43139190    -0.79100
O1591       O  0.83083263  0.09717450  0.38613843    -0.90700
O1592       O  0.89405228  0.16186895  0.37280667    -0.76700
O1593       O  0.89405052  0.10141390  0.39288904    -0.86200
O1594       O  0.86890874  0.10435924  0.36400870    -0.85900
O1595       O  0.87313963  0.04654954  0.40765529    -0.72600
O1596       O  0.85104105  0.04905709  0.38084226    -0.84800
Zr1597     Zr  0.90065862  0.00555823  0.35968635     2.26400
Zr1598     Zr  0.90499514  0.04923569  0.40468918     2.06300
Zr1599     Zr  0.85793505  0.05429253  0.34995339     2.10000
Zr1600     Zr  0.90063245  0.10631316  0.36199685     1.78800
O1601       O  0.83521038  0.01694815  0.33783549    -0.93600
O1602       O  0.92907966  0.13040183  0.37128395    -0.41400
O1603       O  0.88957292  0.05729606  0.34723803    -0.78000
O1604       O  0.91260125  0.05527303  0.37382973    -0.96700
O1605       O  0.89388278  0.99954702  0.39048942    -0.90000
O1606       O  0.86903642  0.00232125  0.36174840    -0.92900
C1607       C  0.88109533  0.17495033  0.38140232     1.00900
C1608       C  0.82178812  0.08674356  0.37263906     1.13800
C1609       C  0.88375696  0.09717538  0.43666626     1.04600
O1610       O  0.93048773  0.08184987  0.41493809    -0.95000
O1611       O  0.93273083  0.01938495  0.39913288    -0.90800
O1612       O  0.93022251  0.99411463  0.37211065    -0.83900
C1613       C  0.93901452  0.00180447  0.38624027     1.11200
O1614       O  0.83783923  0.99563636  0.41395826    -0.97000
Zr1615     Zr  0.86227785  0.99753131  0.39261217     1.88900
O1616       O  0.89439625  0.94592581  0.36502099    -0.73600
O1617       O  0.90693699  0.00839334  0.42885355    -0.52900
O1618       O  0.87033354  0.96987096  0.42046434    -0.97600
O1619       O  0.83481219  0.97379747  0.38048394    -0.54800
O1620       O  0.87119183  0.94169479  0.38421050    -0.74200
C1621       C  0.88325029  0.92878088  0.37432232     0.98200
O1622       O  0.92228731  0.98736960  0.33742344    -0.63000
O1623       O  0.85153006  0.09730128  0.32766000    -0.57800
O1624       O  0.89321556  0.99967723  0.32802237    -0.94500
O1625       O  0.86770714  0.02868913  0.32233551    -0.92900
O1626       O  0.89264996  0.13914604  0.33576250    -0.93200
O1627       O  0.92301786  0.10105395  0.33872136    -0.92000
C1628       C  0.88081737  0.01003314  0.31743366     1.17000
H1629       H  0.86338926  0.12420093  0.35895416     0.33000
H1630       H  0.92535113  0.05682655  0.37226355     0.43800
H1631       H  0.86448584  0.98348197  0.35501191     0.37400
H1632       H  0.86968888  0.04412491  0.41995521     0.33800
H1633       H  0.93104368  0.14960080  0.36309120     0.25600
H1634       H  0.91698256  0.01637736  0.43630753     0.31600
H1635       H  0.88157741  0.95770018  0.41788936     0.37500
H1636       H  0.89948706  0.16035818  0.33694343     0.31900
H1637       H  0.86243704  0.09832575  0.32026616     0.30800
H1638       H  0.82818268  0.03115318  0.32954295     0.32500
H1639       H  0.83863625  0.95869508  0.37073029     0.31500
H1640       H  0.92543954  0.07656344  0.33795783     0.35500
H1641       H  0.93264853  0.00265476  0.33863755     0.28200
H1642       H  0.84467079  0.14490199  0.41871384     0.32400
H1643       H  0.83518669  0.97140509  0.41567015     0.35300
H1644       H  0.84244472  0.08697431  0.31979732     0.27900
H1645       H  0.92662081  0.96504283  0.34146422     0.40700
H1646       H  0.92746507  0.10547967  0.41195194     0.30800
H1647       H  0.92666004  0.14105568  0.38294060     0.38400
H1648       H  0.82885560  0.99288349  0.37438314     0.30300
H1649       H  0.89619689  0.01247732  0.43619820     0.30300
H1650       H  0.83629629  0.10931143  0.42254769     0.30600
Zr1651     Zr  0.86529750  0.59922448  0.39826709     2.17500
O1652       O  0.84438802  0.63015820  0.41706245    -0.51800
O1653       O  0.87211547  0.65848637  0.39168698    -0.75000
O1654       O  0.87453996  0.60220091  0.42985269    -0.81700
O1655       O  0.82897022  0.57552784  0.36421450    -0.83500
O1656       O  0.90029540  0.57262642  0.43336707    -0.79100
O1657       O  0.83335521  0.60028694  0.39117265    -0.90700
O1658       O  0.89474116  0.66039030  0.37182964    -0.76700
O1659       O  0.89681134  0.59984304  0.39404997    -0.86200
O1660       O  0.86990516  0.60402159  0.36684087    -0.85900
O1661       O  0.87546489  0.54580188  0.40987992    -0.72600
O1662       O  0.85224317  0.55036956  0.38459239    -0.84800
Zr1663     Zr  0.89951114  0.50313736  0.36052828     2.26400
Zr1664     Zr  0.90707470  0.54647169  0.40512765     2.06300
Zr1665     Zr  0.85730135  0.55482552  0.35327549     2.10000
Zr1666     Zr  0.90132815  0.60394026  0.36266879     1.78800
O1667       O  0.83338833  0.51846172  0.34268402    -0.93600
O1668       O  0.93010623  0.62670699  0.37177096    -0.41400
O1669       O  0.88882375  0.55548688  0.34843477    -0.78000
O1670       O  0.91276199  0.55218792  0.37388174    -0.96700
O1671       O  0.89434063  0.49758462  0.39165777    -0.90000
O1672       O  0.86801472  0.50202547  0.36439756    -0.92900
C1673       C  0.88333813  0.67463026  0.38195916     1.00900
C1674       C  0.82329112  0.59027217  0.37832416     1.13800
C1675       C  0.88738777  0.59041061  0.43946982     1.04600
O1676       O  0.93306751  0.57792081  0.41519884    -0.95000
O1677       O  0.93403959  0.51643916  0.39746394    -0.90800
O1678       O  0.92959852  0.49019839  0.37105957    -0.83900
C1679       C  0.93939574  0.49809183  0.38451000     1.11200
O1680       O  0.83983088  0.49780790  0.41839623    -0.97000
Zr1681     Zr  0.86289713  0.49770569  0.39554581     1.88900
O1682       O  0.89210207  0.44392252  0.36544061    -0.73600
O1683       O  0.91082206  0.50263799  0.42754776    -0.52900
O1684       O  0.87164159  0.46893779  0.42291226    -0.97600
O1685       O  0.83427380  0.47692439  0.38469800    -0.54800
O1686       O  0.87102283  0.44143389  0.38704133    -0.74200
C1687       C  0.88174800  0.42767856  0.37600498     0.98200
O1688       O  0.92342808  0.48541926  0.34062202    -0.63000
O1689       O  0.85035118  0.59983735  0.33230586    -0.57800
O1690       O  0.88945046  0.49652047  0.32966930    -0.94500
O1691       O  0.86495698  0.52904095  0.32483095    -0.92900
O1692       O  0.89203570  0.63290620  0.33557844    -0.93200
O1693       O  0.92423231  0.60197499  0.33974147    -0.92000
C1694       C  0.87702547  0.50825845  0.31954813     1.17000
H1695       H  0.86442037  0.62419641  0.36212437     0.33000
H1696       H  0.92539534  0.55309168  0.37149280     0.43800
H1697       H  0.86269279  0.48351957  0.35796246     0.37400
H1698       H  0.87244211  0.54275045  0.42224489     0.33800
H1699       H  0.93049806  0.64961854  0.36655743     0.25600
H1700       H  0.92089658  0.51047863  0.43500621     0.31600
H1701       H  0.86702426  0.44568535  0.42174858     0.37500
H1702       H  0.89823199  0.65490954  0.33594448     0.31900
H1703       H  0.85998139  0.59876969  0.32332534     0.30800
H1704       H  0.82651404  0.53251700  0.33420037     0.32500
H1705       H  0.83727319  0.45878382  0.37618030     0.31500
H1706       H  0.92542303  0.57775904  0.33682121     0.35500
H1707       H  0.91911866  0.46464352  0.33474495     0.28200
H1708       H  0.85136592  0.64859883  0.42255649     0.32400
H1709       H  0.83620510  0.47397288  0.41983198     0.35300
H1710       H  0.83956516  0.59197373  0.32593035     0.27900
H1711       H  0.92387855  0.50264048  0.33108764     0.40700
H1712       H  0.94044762  0.58109517  0.40441422     0.30800
H1713       H  0.92894723  0.63055080  0.38473180     0.38400
H1714       H  0.82950804  0.49539685  0.37719651     0.30300
H1715       H  0.90023719  0.50467435  0.43533080     0.30300
H1716       H  0.84135611  0.61484285  0.42702181     0.30600
Zr1717     Zr  0.86258462  0.34645033  0.11249014     2.17500
O1718       O  0.83957693  0.31982952  0.09426161    -0.51800
O1719       O  0.86846076  0.28687291  0.11847413    -0.75000
O1720       O  0.87197741  0.33734380  0.08167333    -0.81700
O1721       O  0.82700474  0.37148592  0.14728659    -0.83500
O1722       O  0.90006191  0.35758148  0.07852361    -0.79100
O1723       O  0.83116441  0.34560881  0.12066848    -0.90700
O1724       O  0.89119833  0.28292398  0.13827511    -0.76700
O1725       O  0.89364936  0.33974476  0.11807672    -0.86200
O1726       O  0.86589711  0.34455734  0.14403906    -0.85900
O1727       O  0.87608005  0.39543950  0.09916890    -0.72600
O1728       O  0.85106149  0.39903812  0.12351050    -0.84800
Zr1729     Zr  0.90022004  0.43983952  0.14810957     2.26400
Zr1730     Zr  0.90724127  0.38873628  0.10547207     2.06300
Zr1731     Zr  0.85512309  0.39745742  0.15507055     2.10000
Zr1732     Zr  0.89697408  0.33890603  0.14957467     1.78800
O1733       O  0.83220419  0.44012773  0.15961772    -0.93600
O1734       O  0.92665961  0.31507795  0.14541835    -0.41400
O1735       O  0.88623383  0.39128193  0.16104881    -0.78000
O1736       O  0.91162638  0.38689454  0.13718402    -0.96700
O1737       O  0.89661959  0.44162519  0.11657298    -0.90000
O1738       O  0.86902569  0.44626004  0.14259360    -0.92900
C1739       C  0.87987180  0.26979454  0.12753318     1.00900
C1740       C  0.82134048  0.35487344  0.13378438     1.13800
C1741       C  0.88614495  0.34260711  0.07244847     1.04600
O1742       O  0.93193418  0.35020869  0.09989006    -0.95000
O1743       O  0.93520378  0.41571165  0.11241085    -0.90800
O1744       O  0.93100660  0.44716271  0.13735458    -0.83900
C1745       C  0.94077125  0.43554497  0.12465841     1.11200
O1746       O  0.84241619  0.44333578  0.08825447    -0.97000
Zr1747     Zr  0.86551935  0.44737096  0.11107448     1.88900
O1748       O  0.89515305  0.49948290  0.14151768    -0.73600
O1749       O  0.91457370  0.42595890  0.08074964    -0.52900
O1750       O  0.87680157  0.46839344  0.08275143    -0.97600
O1751       O  0.83878224  0.48010443  0.11766916    -0.54800
O1752       O  0.87667464  0.50299932  0.11755547    -0.74200
C1753       C  0.88670617  0.51614012  0.12946339     0.98200
O1754       O  0.92090311  0.45802592  0.17130737    -0.63000
O1755       O  0.84554439  0.36149683  0.17952230    -0.57800
O1756       O  0.89050472  0.44854311  0.17906297    -0.94500
O1757       O  0.86314871  0.42514521  0.18277478    -0.92900
O1758       O  0.88383962  0.30985619  0.17491991    -0.93200
O1759       O  0.91526290  0.34224916  0.17633394    -0.92000
C1760       C  0.87668024  0.44162073  0.18860382     1.17000
H1761       H  0.85926099  0.32599227  0.14903616     0.33000
H1762       H  0.92410413  0.38441911  0.14012666     0.43800
H1763       H  0.86445129  0.46650229  0.14807559     0.37400
H1764       H  0.87381926  0.39715614  0.08655849     0.33800
H1765       H  0.92681463  0.29446078  0.15285033     0.25600
H1766       H  0.92521695  0.41558254  0.07520065     0.31600
H1767       H  0.87388172  0.49272679  0.08264844     0.37500
H1768       H  0.88841102  0.28648825  0.17417693     0.31900
H1769       H  0.85659968  0.35651400  0.18627308     0.30800
H1770       H  0.82598652  0.43302799  0.17060887     0.32500
H1771       H  0.84184430  0.49364881  0.12829197     0.31500
H1772       H  0.91806432  0.36651132  0.17756177     0.35500
H1773       H  0.93018584  0.44027497  0.17195187     0.28200
H1774       H  0.84504410  0.29897463  0.08951054     0.32400
H1775       H  0.84100130  0.46638593  0.08339090     0.35300
H1776       H  0.83855062  0.37642416  0.18743450     0.27900
H1777       H  0.92705799  0.47817497  0.16656364     0.40700
H1778       H  0.92629898  0.32793171  0.09807489     0.30800
H1779       H  0.92665304  0.30663440  0.13302578     0.38400
H1780       H  0.83005900  0.46333243  0.12204546     0.30300
H1781       H  0.90489783  0.42266689  0.07193358     0.30300
H1782       H  0.83788807  0.33466206  0.08378224     0.30600
Zr1783     Zr  0.86270588  0.84523252  0.11179456     2.17500
O1784       O  0.84000298  0.81612449  0.09427217    -0.51800
O1785       O  0.86924117  0.78598793  0.11842398    -0.75000
O1786       O  0.87108246  0.83684667  0.08054090    -0.81700
O1787       O  0.82844513  0.87265150  0.14708059    -0.83500
O1788       O  0.89845046  0.85945958  0.07567055    -0.79100
O1789       O  0.83123552  0.84631922  0.12043999    -0.90700
O1790       O  0.89321025  0.78337447  0.13679160    -0.76700
O1791       O  0.89418029  0.84110697  0.11533187    -0.86200
O1792       O  0.86827928  0.84226976  0.14308430    -0.85900
O1793       O  0.87437794  0.89555303  0.09798392    -0.72600
O1794       O  0.85110565  0.89649502  0.12428175    -0.84800
Zr1795     Zr  0.90026666  0.94090408  0.14554946     2.26400
Zr1796     Zr  0.90601024  0.89127264  0.10231109     2.06300
Zr1797     Zr  0.85732781  0.89391378  0.15546374     2.10000
Zr1798     Zr  0.89981506  0.83975213  0.14650916     1.78800
O1799       O  0.83316701  0.92848175  0.16711600    -0.93600
O1800       O  0.92851314  0.81561883  0.13811641    -0.41400
O1801       O  0.88885037  0.89087323  0.15935655    -0.78000
O1802       O  0.91241046  0.88930407  0.13366003    -0.96700
O1803       O  0.89461913  0.94287260  0.11433295    -0.90000
O1804       O  0.86871807  0.94443144  0.14227522    -0.92900
C1805       C  0.88125257  0.76956146  0.12707544     1.00900
C1806       C  0.82192915  0.85700115  0.13366119     1.13800
C1807       C  0.88460916  0.84304884  0.07054604     1.04600
O1808       O  0.93072249  0.85273341  0.09687164    -0.95000
O1809       O  0.93334312  0.92190024  0.10765519    -0.90800
O1810       O  0.93024518  0.94997187  0.13380168    -0.83900
C1811       C  0.93932991  0.94081559  0.12014355     1.11200
O1812       O  0.83800438  0.93775120  0.09086437    -0.97000
Zr1813     Zr  0.86312119  0.94616465  0.11105327     1.88900
O1814       O  0.89422556  0.99999243  0.13849872    -0.73600
O1815       O  0.91201965  0.92740606  0.07679563    -0.52900
O1816       O  0.86933270  0.97064653  0.08196305    -0.97600
O1817       O  0.83679439  0.97661515  0.12133037    -0.54800
O1818       O  0.87415141  0.00255565  0.11582557    -0.74200
C1819       C  0.88489498  0.01618662  0.12693496     0.98200
O1820       O  0.92132735  0.96117909  0.16791817    -0.63000
O1821       O  0.85313233  0.85115519  0.17839907    -0.57800
O1822       O  0.89185399  0.95070692  0.17663669    -0.94500
O1823       O  0.86553679  0.92461109  0.18215193    -0.92900
O1824       O  0.89021199  0.81141497  0.17359524    -0.93200
O1825       O  0.92158802  0.84224176  0.17057292    -0.92000
C1826       C  0.87878182  0.94292586  0.18695612     1.17000
H1827       H  0.86248157  0.82292364  0.14828857     0.33000
H1828       H  0.92508926  0.88775460  0.13579191     0.43800
H1829       H  0.86401124  0.96410726  0.14820356     0.37400
H1830       H  0.87136897  0.89712711  0.08551958     0.33800
H1831       H  0.92937323  0.79434272  0.14496258     0.25600
H1832       H  0.92065937  0.91456398  0.06950256     0.31600
H1833       H  0.88190093  0.97819669  0.08265439     0.37500
H1834       H  0.89539429  0.78850255  0.17281458     0.31900
H1835       H  0.85117028  0.86394997  0.18952361     0.30800
H1836       H  0.82856263  0.91570643  0.17745830     0.32500
H1837       H  0.84141290  0.99568929  0.12844393     0.31500
H1838       H  0.92763183  0.86419230  0.16895435     0.35500
H1839       H  0.93142217  0.94504661  0.16784541     0.28200
H1840       H  0.84602692  0.79644264  0.08884500     0.32400
H1841       H  0.83429166  0.96058787  0.08702912     0.35300
H1842       H  0.84139527  0.84089593  0.17573682     0.27900
H1843       H  0.92624567  0.98249371  0.16315646     0.40700
H1844       H  0.92506081  0.83083996  0.09407719     0.30800
H1845       H  0.92688156  0.80824392  0.12564226     0.38400
H1846       H  0.83124386  0.96141019  0.13017859     0.30300
H1847       H  0.90084075  0.92724413  0.06974952     0.30300
H1848       H  0.83711881  0.83129095  0.08418598     0.30600
Zr1849     Zr  0.14799545  0.08545411  0.11146368     2.17500
O1850       O  0.17035947  0.11532248  0.09392538    -0.51800
O1851       O  0.14195668  0.14420455  0.11910513    -0.75000
O1852       O  0.13896269  0.09440223  0.08017683    -0.81700
O1853       O  0.18257436  0.05820160  0.14662823    -0.83500
O1854       O  0.11131766  0.07244485  0.07604081    -0.79100
O1855       O  0.17961150  0.08474404  0.12005957    -0.90700
O1856       O  0.12033272  0.14679590  0.14011136    -0.76700
O1857       O  0.11660325  0.08990650  0.11574787    -0.86200
O1858       O  0.14315138  0.08644234  0.14292682    -0.85900
O1859       O  0.13574863  0.03588703  0.09756753    -0.72600
O1860       O  0.15979640  0.03362153  0.12314723    -0.84800
Zr1861     Zr  0.11065435  0.98889758  0.14519818     2.26400
Zr1862     Zr  0.10425038  0.04028511  0.10258835     2.06300
Zr1863     Zr  0.15424187  0.03413021  0.15447652     2.10000
Zr1864     Zr  0.11173191  0.08991881  0.14703997     1.78800
O1865       O  0.17704267  0.99241781  0.16163314    -0.93600
O1866       O  0.08421142  0.11791232  0.13797237    -0.41400
O1867       O  0.12290167  0.03821776  0.15891030    -0.78000
O1868       O  0.09843284  0.04117436  0.13400196    -0.96700
O1869       O  0.11561729  0.98802436  0.11389338    -0.90000
O1870       O  0.14211840  0.98455394  0.14121695    -0.92900
C1871       C  0.13160229  0.16054412  0.12962820     1.00900
C1872       C  0.18901019  0.07440960  0.13338756     1.13800
C1873       C  0.12512118  0.08835498  0.07046515     1.04600
O1874       O  0.07981537  0.07951783  0.09713198    -0.95000
O1875       O  0.07690474  0.00992762  0.10810440    -0.90800
O1876       O  0.08023849  0.98156928  0.13412805    -0.83900
C1877       C  0.07094552  0.99113750  0.12064830     1.11200
O1878       O  0.16917876  0.99050944  0.08630686    -0.97000
Zr1879     Zr  0.14703523  0.98472212  0.10984996     1.88900
O1880       O  0.11772838  0.92993650  0.13854513    -0.73600
O1881       O  0.09791411  0.00468276  0.07696852    -0.52900
O1882       O  0.13643111  0.95938477  0.08225410    -0.97600
O1883       O  0.17557319  0.95839418  0.11707094    -0.54800
O1884       O  0.13916660  0.92792478  0.11736490    -0.74200
C1885       C  0.12828777  0.91379792  0.12811720     0.98200
O1886       O  0.09097235  0.96188363  0.16676576    -0.63000
O1887       O  0.16301976  0.07144504  0.17865353    -0.57800
O1888       O  0.11726761  0.98536593  0.17711908    -0.94500
O1889       O  0.14445380  0.00849334  0.18220058    -0.92900
O1890       O  0.12041562  0.11468425  0.17539035    -0.93200
O1891       O  0.08906508  0.08454338  0.17004415    -0.92000
C1892       C  0.13027313  0.99336995  0.18749997     1.17000
H1893       H  0.14924091  0.10516354  0.14843234     0.33000
H1894       H  0.08582618  0.04305549  0.13640988     0.43800
H1895       H  0.14692923  0.96467712  0.14691370     0.37400
H1896       H  0.13844252  0.03451196  0.08504532     0.33800
H1897       H  0.08386327  0.13889265  0.14507889     0.25600
H1898       H  0.08837723  0.01672249  0.07038660     0.31600
H1899       H  0.12435294  0.95078750  0.08500674     0.37500
H1900       H  0.11337148  0.13574867  0.17623548     0.31900
H1901       H  0.15208144  0.07442221  0.18585490     0.30800
H1902       H  0.18285324  0.00103472  0.17255817     0.32500
H1903       H  0.17337941  0.94540625  0.12810377     0.31500
H1904       H  0.08890560  0.06020491  0.17295764     0.35500
H1905       H  0.08011837  0.97608516  0.16747284     0.28200
H1906       H  0.16438993  0.13604795  0.08958040     0.32400
H1907       H  0.17112914  0.96747180  0.08164966     0.35300
H1908       H  0.17103981  0.05768205  0.18623055     0.27900
H1909       H  0.08703746  0.94060258  0.16115624     0.40700
H1910       H  0.07181394  0.07698979  0.10751480     0.30800
H1911       H  0.08647819  0.12566923  0.12565636     0.38400
H1912       H  0.18331917  0.97725206  0.12088512     0.30300
H1913       H  0.10857036  0.00658953  0.06926749     0.30300
H1914       H  0.17240993  0.10150553  0.08315382     0.30600
Zr1915     Zr  0.14987780  0.58522394  0.10928347     2.17500
O1916       O  0.17245051  0.61639954  0.09267699    -0.51800
O1917       O  0.14340588  0.64411157  0.11584302    -0.75000
O1918       O  0.14146714  0.59274108  0.07791640    -0.81700
O1919       O  0.18520930  0.55569414  0.14367201    -0.83500
O1920       O  0.11358418  0.57147556  0.07392234    -0.79100
O1921       O  0.18161647  0.58357433  0.11753193    -0.90700
O1922       O  0.12244620  0.64732666  0.13747934    -0.76700
O1923       O  0.11841952  0.58975504  0.11353888    -0.86200
O1924       O  0.14512717  0.58768514  0.14070428    -0.85900
O1925       O  0.13761997  0.53525272  0.09571297    -0.72600
O1926       O  0.16163782  0.53386351  0.12127660    -0.84800
Zr1927     Zr  0.11228188  0.49041446  0.14364754     2.26400
Zr1928     Zr  0.10603857  0.53988154  0.10055070     2.06300
Zr1929     Zr  0.15621836  0.53571400  0.15255484     2.10000
Zr1930     Zr  0.11370641  0.59107240  0.14488693     1.78800
O1931       O  0.17776141  0.49302569  0.16169442    -0.93600
O1932       O  0.08656197  0.62187105  0.13731001    -0.41400
O1933       O  0.12479460  0.53981194  0.15716884    -0.78000
O1934       O  0.10034258  0.54246012  0.13190886    -0.96700
O1935       O  0.11739926  0.48807086  0.11237868    -0.90000
O1936       O  0.14378690  0.48575308  0.13988206    -0.92900
C1937       C  0.13322826  0.66066045  0.12640346     1.00900
C1938       C  0.19135128  0.57222714  0.13038413     1.13800
C1939       C  0.12755737  0.58684302  0.06833241     1.04600
O1940       O  0.08159993  0.57701239  0.09190445    -0.95000
O1941       O  0.07785843  0.51244239  0.10708255    -0.90800
O1942       O  0.08180197  0.48292790  0.13261355    -0.83900
C1943       C  0.07208724  0.49312757  0.11951185     1.11200
O1944       O  0.17168709  0.48737299  0.08555358    -0.97000
Zr1945     Zr  0.14886890  0.48449787  0.10861114     1.88900
O1946       O  0.11996670  0.43103473  0.13872478    -0.73600
O1947       O  0.10043952  0.49994670  0.07661471    -0.52900
O1948       O  0.13924522  0.45787973  0.08100410    -0.97600
O1949       O  0.17709845  0.45928264  0.11792833    -0.54800
O1950       O  0.14069972  0.42827176  0.11686215    -0.74200
C1951       C  0.13040248  0.41456764  0.12828085     0.98200
O1952       O  0.08851948  0.46430796  0.16094564    -0.63000
O1953       O  0.16678204  0.57550551  0.17486019    -0.57800
O1954       O  0.11918713  0.48839957  0.17569326    -0.94500
O1955       O  0.14578055  0.51395760  0.18076569    -0.92900
O1956       O  0.12284837  0.61613504  0.17301489    -0.93200
O1957       O  0.09087584  0.58457341  0.16765156    -0.92000
C1958       C  0.13190757  0.49797071  0.18609457     1.17000
H1959       H  0.15124908  0.60663229  0.14596371     0.33000
H1960       H  0.08776045  0.54467582  0.13435349     0.43800
H1961       H  0.14854990  0.46614905  0.14585909     0.37400
H1962       H  0.14040930  0.53328852  0.08322938     0.33800
H1963       H  0.08645147  0.64140215  0.14550332     0.25600
H1964       H  0.09068355  0.51028477  0.06956258     0.31600
H1965       H  0.14418038  0.43474036  0.08149045     0.37500
H1966       H  0.11670368  0.63823464  0.17334349     0.31900
H1967       H  0.15597925  0.58196579  0.18161125     0.30800
H1968       H  0.18488729  0.50391966  0.17118105     0.32500
H1969       H  0.17402276  0.44370894  0.12774578     0.31500
H1970       H  0.09363176  0.56271190  0.17340862     0.35500
H1971       H  0.09415774  0.44521075  0.16731760     0.28200
H1972       H  0.16625103  0.63645390  0.08780788     0.32400
H1973       H  0.17526858  0.46375953  0.08322598     0.35300
H1974       H  0.17387804  0.56174333  0.18330281     0.27900
H1975       H  0.08535876  0.48079039  0.17031265     0.40700
H1976       H  0.08526521  0.59962694  0.09606180     0.30800
H1977       H  0.08893030  0.63182101  0.12546108     0.38400
H1978       H  0.18368049  0.47781160  0.12380423     0.30300
H1979       H  0.11106033  0.50152074  0.06885007     0.30300
H1980       H  0.17530860  0.60238949  0.08216221     0.30600
Zr1981     Zr  0.14657505  0.34296654  0.39324618     2.17500
O1982       O  0.16886383  0.31322634  0.41110172    -0.51800
O1983       O  0.14045320  0.28418694  0.38605061    -0.75000
O1984       O  0.13757579  0.33442156  0.42437986    -0.81700
O1985       O  0.18235100  0.36976223  0.35931927    -0.83500
O1986       O  0.11022883  0.35790666  0.42792312    -0.79100
O1987       O  0.17826748  0.34311813  0.38577652    -0.90700
O1988       O  0.11876212  0.28128257  0.36506069    -0.76700
O1989       O  0.11528374  0.33847494  0.38813827    -0.86200
O1990       O  0.14248848  0.34076320  0.36169495    -0.85900
O1991       O  0.13424264  0.39298652  0.40658233    -0.72600
O1992       O  0.15863785  0.39439425  0.38152627    -0.84800
Zr1993     Zr  0.10977557  0.43833992  0.35818370     2.26400
Zr1994     Zr  0.10287179  0.38840795  0.40095569     2.06300
Zr1995     Zr  0.15385463  0.39252128  0.35008156     2.10000
Zr1996     Zr  0.11120388  0.33777511  0.35664326     1.78800
O1997       O  0.17777779  0.43046390  0.34129053    -0.93600
O1998       O  0.08272242  0.31162766  0.36378915    -0.41400
O1999       O  0.12247530  0.38913574  0.34447469    -0.78000
O2000       O  0.09764130  0.38634464  0.36944484    -0.96700
O2001       O  0.11427284  0.44041025  0.38956584    -0.90000
O2002       O  0.14120293  0.44233817  0.36273119    -0.92900
C2003       C  0.12987885  0.26770102  0.37581643     1.00900
C2004       C  0.18814098  0.35353480  0.37293214     1.13800
C2005       C  0.12371826  0.34133656  0.43379421     1.04600
O2006       O  0.07890130  0.34911797  0.40760188    -0.95000
O2007       O  0.07540787  0.41780645  0.39434964    -0.90800
O2008       O  0.07911202  0.44648053  0.36840380    -0.83900
C2009       C  0.06963442  0.43644098  0.38163866     1.11200
O2010       O  0.16642527  0.43945693  0.41898440    -0.97000
Zr2011     Zr  0.14561286  0.44376949  0.39408768     1.88900
O2012       O  0.11635648  0.49738153  0.36433248    -0.73600
O2013       O  0.09526870  0.42455043  0.42600937    -0.52900
O2014       O  0.13351667  0.47169961  0.42030595    -0.97600
O2015       O  0.17468195  0.46806713  0.38735404    -0.54800
O2016       O  0.13859711  0.50011500  0.38474329    -0.74200
C2017       C  0.12738798  0.51381948  0.37409804     0.98200
O2018       O  0.08624814  0.46117234  0.33911029    -0.63000
O2019       O  0.16103146  0.35154099  0.32699001    -0.57800
O2020       O  0.11901193  0.44648894  0.32721560    -0.94500
O2021       O  0.14601340  0.42215153  0.32296075    -0.92900
O2022       O  0.12142860  0.30894095  0.32994994    -0.93200
O2023       O  0.09045432  0.34260318  0.33176806    -0.92000
C2024       C  0.13258309  0.43929274  0.31745928     1.17000
H2025       H  0.14866910  0.32171847  0.35660895     0.33000
H2026       H  0.08507779  0.38440176  0.36679986     0.43800
H2027       H  0.14612413  0.46193052  0.35691398     0.37400
H2028       H  0.13681880  0.39469433  0.41912982     0.33800
H2029       H  0.08195399  0.29191163  0.35576447     0.25600
H2030       H  0.08823122  0.41005881  0.43410762     0.31600
H2031       H  0.13877069  0.49456756  0.42021024     0.37500
H2032       H  0.12644843  0.32698434  0.32236892     0.31900
H2033       H  0.15697387  0.36182657  0.31567659     0.30800
H2034       H  0.18281622  0.42028826  0.33037104     0.32500
H2035       H  0.17280396  0.48142801  0.37637277     0.31500
H2036       H  0.08689875  0.36663942  0.33164542     0.35500
H2037       H  0.09117903  0.48200945  0.33379390     0.28200
H2038       H  0.16266375  0.29359198  0.41636322     0.32400
H2039       H  0.16889942  0.46292884  0.42267607     0.35300
H2040       H  0.17421427  0.35167495  0.32618147     0.27900
H2041       H  0.08499579  0.44517665  0.32908231     0.40700
H2042       H  0.07284208  0.34549690  0.39605305     0.30800
H2043       H  0.08451572  0.30169666  0.37575375     0.38400
H2044       H  0.18207343  0.44871591  0.38349536     0.30300
H2045       H  0.10669736  0.42819708  0.43234478     0.30300
H2046       H  0.17159366  0.32820419  0.42128185     0.30600
Zr2047     Zr  0.14728892  0.84225951  0.39527685     2.17500
O2048       O  0.17077784  0.81748083  0.41373954    -0.51800
O2049       O  0.14093738  0.78333606  0.38800668    -0.75000
O2050       O  0.13829911  0.83132508  0.42616226    -0.81700
O2051       O  0.18137861  0.86804691  0.35968705    -0.83500
O2052       O  0.11140878  0.85590650  0.43104847    -0.79100
O2053       O  0.17859014  0.83987158  0.38581027    -0.90700
O2054       O  0.11971595  0.78087972  0.36647915    -0.76700
O2055       O  0.11583826  0.83792677  0.39138291    -0.86200
O2056       O  0.14196525  0.84040607  0.36397872    -0.85900
O2057       O  0.13511208  0.89213548  0.40903947    -0.72600
O2058       O  0.15869731  0.89405429  0.38329317    -0.84800
Zr2059     Zr  0.10889900  0.93798252  0.36140019     2.26400
Zr2060     Zr  0.10348165  0.88763589  0.40451817     2.06300
Zr2061     Zr  0.15275454  0.89240637  0.35203141     2.10000
Zr2062     Zr  0.11050730  0.83729643  0.36013995     1.78800
O2063       O  0.17560551  0.93330943  0.34415228    -0.93600
O2064       O  0.08378021  0.80793750  0.37010607    -0.41400
O2065       O  0.12121557  0.88867509  0.34767849    -0.78000
O2066       O  0.09738602  0.88589695  0.37320159    -0.96700
O2067       O  0.11436112  0.93979962  0.39268614    -0.90000
O2068       O  0.14044964  0.94226637  0.36498315    -0.92900
C2069       C  0.13072540  0.76709652  0.37725296     1.00900
C2070       C  0.18786956  0.85058742  0.37254245     1.13800
C2071       C  0.12484722  0.83822926  0.43613823     1.04600
O2072       O  0.07934077  0.84844096  0.41089593    -0.95000
O2073       O  0.07547751  0.91625049  0.39857032    -0.90800
O2074       O  0.07841562  0.94472280  0.37251617    -0.83900
C2075       C  0.06921353  0.93469658  0.38597176     1.11200
O2076       O  0.16878409  0.93935714  0.41922124    -0.97000
Zr2077     Zr  0.14583646  0.94337286  0.39625365     1.88900
O2078       O  0.11614972  0.99704857  0.36704842    -0.73600
O2079       O  0.09676804  0.92419445  0.42966680    -0.52900
O2080       O  0.13501573  0.96848190  0.42379994    -0.97600
O2081       O  0.17378371  0.97055710  0.38800610    -0.54800
O2082       O  0.13788745  0.00007047  0.38797503    -0.74200
C2083       C  0.12691176  0.01368270  0.37704025     0.98200
O2084       O  0.08492745  0.96271343  0.34359145    -0.63000
O2085       O  0.16028232  0.85550236  0.32722619    -0.57800
O2086       O  0.11606044  0.94272762  0.32947551    -0.94500
O2087       O  0.14281347  0.91773347  0.32436511    -0.92900
O2088       O  0.11958876  0.81472210  0.33144174    -0.93200
O2089       O  0.08623130  0.84018825  0.33860096    -0.92000
C2090       C  0.12889386  0.93379747  0.31909344     1.17000
H2091       H  0.14797028  0.82143758  0.35861223     0.33000
H2092       H  0.08477196  0.88359226  0.37093726     0.43800
H2093       H  0.14514752  0.96192888  0.35904369     0.37400
H2094       H  0.13804255  0.89328479  0.42153842     0.33800
H2095       H  0.08296450  0.78776961  0.36240770     0.25600
H2096       H  0.08608522  0.91402642  0.43523241     0.31600
H2097       H  0.13885490  0.99231797  0.42330827     0.37500
H2098       H  0.12300728  0.83472587  0.32434764     0.31900
H2099       H  0.17107799  0.86566879  0.32189272     0.30800
H2100       H  0.17949598  0.92670604  0.33206297     0.32500
H2101       H  0.17088729  0.98454976  0.37746965     0.31500
H2102       H  0.08319396  0.86444026  0.33787063     0.35500
H2103       H  0.09027264  0.98204564  0.33720279     0.28200
H2104       H  0.16577715  0.79635063  0.41865162     0.32400
H2105       H  0.17070761  0.96270523  0.42342622     0.35300
H2106       H  0.16457571  0.83425245  0.33265555     0.27900
H2107       H  0.08212746  0.94593697  0.33425016     0.40700
H2108       H  0.08517417  0.82616443  0.41215787     0.30800
H2109       H  0.08691605  0.79884304  0.38198343     0.38400
H2110       H  0.18128379  0.95210881  0.38324334     0.30300
H2111       H  0.10650231  0.92023043  0.43835206     0.30300
H2112       H  0.17220469  0.83267510  0.42409166     0.30600
C2113       C  0.12774141  0.55108542  0.37312699    -0.20300
C2114       C  0.11242655  0.57064187  0.36919677     0.35900
C2115       C  0.11360819  0.60596579  0.36988080    -0.26300
C2116       C  0.12970344  0.62195166  0.37428202     0.02400
C2117       C  0.14498194  0.60259356  0.37797841     0.27200
C2118       C  0.14385588  0.56743942  0.37733876    -0.25400
N2119       N  0.09563352  0.55482202  0.36524429    -0.82800
H2120       H  0.10190079  0.62118684  0.36712889     0.13000
C2121       C  0.13043010  0.65909020  0.37492332     0.02300
N2122       N  0.16155846  0.61877017  0.38242243    -0.81300
H2123       H  0.15570297  0.55269364  0.38020456     0.17800
C2124       C  0.13427645  0.67517178  0.39109791    -0.26200
C2125       C  0.13470896  0.71048933  0.39227294     0.35800
C2126       C  0.13147183  0.72990044  0.37684117    -0.20200
C2127       C  0.12784571  0.71355329  0.36062759    -0.25500
C2128       C  0.12735645  0.67836112  0.35950356     0.27200
H2129       H  0.13657023  0.66004815  0.40290325     0.13000
N2130       N  0.13786333  0.72657259  0.40911847    -0.82700
H2131       H  0.12543145  0.72833523  0.34872413     0.17800
N2132       N  0.12382548  0.66205699  0.34278184    -0.81300
H2133       H  0.14012584  0.70860719  0.41906269     0.33500
H2134       H  0.12618451  0.73937018  0.41263306     0.37900
H2135       H  0.12170850  0.67988769  0.33273900     0.33400
H2136       H  0.13527558  0.64855869  0.33925671     0.30100
H2137       H  0.17149094  0.60088024  0.38500727     0.33400
H2138       H  0.16570076  0.63239654  0.37125930     0.30100
H2139       H  0.09672739  0.54381314  0.35266487     0.38000
H2140       H  0.08550091  0.57285951  0.36416955     0.33500
C2141       C  0.12728829  0.05104129  0.37580703    -0.20300
C2142       C  0.11217659  0.07041706  0.37092249     0.35900
C2143       C  0.11338869  0.10576553  0.37090585    -0.26300
C2144       C  0.12938319  0.12212178  0.37529984     0.02400
C2145       C  0.14451437  0.10292826  0.37988953     0.27200
C2146       C  0.14327569  0.06769698  0.38021837    -0.25400
N2147       N  0.09552424  0.05443469  0.36659082    -0.82800
H2148       H  0.10175547  0.12074225  0.36753596     0.13000
C2149       C  0.13001830  0.15942079  0.37522886     0.02300
N2150       N  0.16108865  0.11931529  0.38412912    -0.81300
H2151       H  0.15498902  0.05312715  0.38379540     0.17800
C2152       C  0.13464333  0.17657468  0.39089727    -0.26200
C2153       C  0.13486906  0.21195441  0.39150833     0.35800
C2154       C  0.13044660  0.23045422  0.37603873    -0.20200
C2155       C  0.12590376  0.21311885  0.36036544    -0.25500
C2156       C  0.12574380  0.17785351  0.35976717     0.27200
H2157       H  0.13772659  0.16223383  0.40279641     0.13000
N2158       N  0.13910240  0.22899810  0.40785247    -0.82700
H2159       H  0.12261974  0.22716917  0.34842052     0.17800
N2160       N  0.12136344  0.16065913  0.34350323    -0.81300
H2161       H  0.14221964  0.21164045  0.41787043     0.33500
H2162       H  0.12761773  0.24172051  0.41201132     0.37900
H2163       H  0.11833739  0.17791944  0.33340956     0.33400
H2164       H  0.13274464  0.14755453  0.33940134     0.30100
H2165       H  0.17090417  0.10158505  0.38738405     0.33400
H2166       H  0.16546344  0.13170530  0.37265636     0.30100
H2167       H  0.09708761  0.04274390  0.35423595     0.38000
H2168       H  0.08546820  0.07243391  0.36482464     0.33500
C2169       C  0.13243318  0.45065812  0.29847909    -0.20300
C2170       C  0.14825979  0.45342857  0.28822858     0.35900
C2171       C  0.14715375  0.46326329  0.27026386    -0.26300
C2172       C  0.13069231  0.47008780  0.26211489     0.02400
C2173       C  0.11494673  0.46782431  0.27227865     0.27200
C2174       C  0.11598262  0.45832507  0.29031068    -0.25400
N2175       N  0.16544892  0.44659154  0.29598416    -0.82800
H2176       H  0.15922652  0.46478322  0.26239159     0.13000
C2177       C  0.13021547  0.47853893  0.24278379     0.02300
N2178       N  0.09795423  0.47510407  0.26422332    -0.81300
H2179       H  0.10377470  0.45634652  0.29792965     0.17800
C2180       C  0.12055288  0.45795059  0.23104220    -0.26200
C2181       C  0.12070098  0.46373506  0.21253408     0.35800
C2182       C  0.13060403  0.49105807  0.20558105    -0.20200
C2183       C  0.14000673  0.51197360  0.21747428    -0.25500
C2184       C  0.13997345  0.50595113  0.23591799     0.27200
H2185       H  0.11328873  0.43659566  0.23632405     0.13000
N2186       N  0.11126214  0.44134079  0.20083018    -0.82700
H2187       H  0.14749967  0.53319663  0.21236486     0.17800
N2188       N  0.14991146  0.52743935  0.24770875    -0.81300
H2189       H  0.10451705  0.42285307  0.20809146     0.33500
H2190       H  0.12074589  0.42873573  0.19310865     0.37900
H2191       H  0.15648828  0.54630067  0.24056034     0.33400
H2192       H  0.14077985  0.53957037  0.25603281     0.30100
H2193       H  0.08764540  0.47195077  0.27342790     0.33400
H2194       H  0.09793373  0.50054675  0.26060882     0.30100
H2195       H  0.16663067  0.42045100  0.29723626     0.38000
H2196       H  0.17565677  0.45395029  0.28735391     0.33500
C2197       C  0.12860177  0.87639066  0.12843456    -0.20300
C2198       C  0.11352458  0.85644738  0.13270487     0.35900
C2199       C  0.11477673  0.82130511  0.13184963    -0.26300
C2200       C  0.13074870  0.80548688  0.12690421     0.02400
C2201       C  0.14581568  0.82494896  0.12279479     0.27200
C2202       C  0.14457068  0.86013293  0.12348563    -0.25400
N2203       N  0.09668458  0.87091603  0.13745247    -0.82800
H2204       H  0.10319375  0.80616034  0.13505706     0.13000
C2205       C  0.13178347  0.76840433  0.12674922     0.02300
N2206       N  0.16235727  0.80882723  0.11813572    -0.81300
H2207       H  0.15627496  0.87494350  0.12031385     0.17800
C2208       C  0.13401742  0.75139069  0.11054756    -0.26200
C2209       C  0.13491639  0.71603889  0.11002390     0.35800
C2210       C  0.13373155  0.69772094  0.12608773    -0.20200
C2211       C  0.13180750  0.71497295  0.14227685    -0.25500
C2212       C  0.13092194  0.75016846  0.14277365     0.27200
H2213       H  0.13475353  0.76576120  0.09829905     0.13000
N2214       N  0.13650582  0.69875619  0.09329031    -0.82700
H2215       H  0.13100913  0.70087405  0.15461287     0.17800
N2216       N  0.12919847  0.76755864  0.15945960    -0.81300
H2217       H  0.13724004  0.71601464  0.08279454     0.33500
H2218       H  0.12480523  0.68491335  0.09133402     0.37900
H2219       H  0.12866957  0.75040422  0.17001567     0.33400
H2220       H  0.14076008  0.78185189  0.16131755     0.30100
H2221       H  0.17216624  0.82677160  0.11536502     0.33400
H2222       H  0.16677466  0.79536870  0.12928252     0.30100
H2223       H  0.09268468  0.88736961  0.12732462     0.38000
H2224       H  0.09820417  0.88431607  0.14931020     0.33500
C2225       C  0.13237810  0.19782511  0.12955825    -0.20300
C2226       C  0.12906809  0.21657976  0.14520939     0.35900
C2227       C  0.12821792  0.25183309  0.14429297    -0.26300
C2228       C  0.13083349  0.26881441  0.12817940     0.02400
C2229       C  0.13474767  0.25031026  0.11263816     0.27200
C2230       C  0.13556200  0.21494175  0.11350478    -0.25400
N2231       N  0.12683595  0.19981241  0.16203037    -0.82800
H2232       H  0.12573713  0.26626994  0.15627128     0.13000
C2233       C  0.13028936  0.30610980  0.12811577     0.02300
N2234       N  0.13762932  0.26749838  0.09603945    -0.81300
H2235       H  0.13815028  0.20065554  0.10150142     0.17800
C2236       C  0.14575591  0.32376193  0.12360922    -0.26200
C2237       C  0.14615899  0.35896015  0.12407342     0.35800
C2238       C  0.13074067  0.37723654  0.12911968    -0.20200
C2239       C  0.11531331  0.35946258  0.13400147    -0.25500
C2240       C  0.11487934  0.32401826  0.13336213     0.27200
H2241       H  0.15771554  0.31007262  0.11991743     0.13000
N2242       N  0.16242530  0.37596018  0.11969298    -0.82700
H2243       H  0.10341995  0.37323668  0.13778454     0.17800
N2244       N  0.09881790  0.30611716  0.13774458    -0.81300
H2245       H  0.17241626  0.36743378  0.12833482     0.33500
H2246       H  0.16600460  0.36919340  0.10673655     0.37900
H2247       H  0.08869986  0.32294183  0.14133204     0.33400
H2248       H  0.09446557  0.29385612  0.12622069     0.30100
H2249       H  0.14040097  0.25024555  0.08590605     0.33400
H2250       H  0.12569749  0.27952224  0.09255467     0.30100
H2251       H  0.13891384  0.18792993  0.16513302     0.38000
H2252       H  0.12443724  0.21725027  0.17217012     0.33500
C2253       C  0.12894486  0.98517764  0.20689551    -0.20300
C2254       C  0.11235025  0.98157595  0.21573018     0.35900
C2255       C  0.11203098  0.97381036  0.23406417    -0.26300
C2256       C  0.12785940  0.97014306  0.24390961     0.02400
C2257       C  0.14438366  0.97449271  0.23522376     0.27200
C2258       C  0.14474469  0.98181461  0.21689997    -0.25400
N2259       N  0.09587409  0.98630133  0.20621095    -0.82800
H2260       H  0.09934950  0.97044605  0.24072594     0.13000
C2261       C  0.12709120  0.96060500  0.26314802     0.02300
N2262       N  0.16077511  0.97153458  0.24509058    -0.81300
H2263       H  0.15752775  0.98475872  0.21037744     0.17800
C2264       C  0.13558531  0.93092182  0.26873304    -0.26200
C2265       C  0.13578517  0.92116901  0.28673252     0.35800
C2266       C  0.12762006  0.94198908  0.29970045    -0.20200
C2267       C  0.11845804  0.97105189  0.29399984    -0.25500
C2268       C  0.11815229  0.98061181  0.27587900     0.27200
H2269       H  0.14200670  0.91507874  0.25890107     0.13000
N2270       N  0.14398784  0.88980516  0.29180082    -0.82700
H2271       H  0.11194342  0.98688581  0.30376781     0.17800
N2272       N  0.10911262  0.01087789  0.27041608    -0.81300
H2273       H  0.14942665  0.87764243  0.28072795     0.33500
H2274       H  0.13391669  0.87408904  0.29664542     0.37900
H2275       H  0.10308836  0.02258116  0.28132352     0.33400
H2276       H  0.11875101  0.02758222  0.26562529     0.30100
H2277       H  0.17176637  0.97521482  0.23676746     0.33400
H2278       H  0.16102164  0.99097863  0.25446050     0.30100
H2279       H  0.09526595  0.01154189  0.20224997     0.38000
H2280       H  0.08494921  0.98229684  0.21457842     0.33500
C2281       C  0.95837893  0.95057572  0.11923718    -0.20300
C2282       C  0.96508283  0.97959425  0.12786248     0.35900
C2283       C  0.98355955  0.98567512  0.12783537    -0.26300
C2284       C  0.99532958  0.96345670  0.11934973     0.02400
C2285       C  0.98869533  0.93503824  0.11041019     0.27200
C2286       C  0.97029713  0.92888940  0.11041149    -0.25400
N2287       N  0.95317977  0.00276415  0.13653011    -0.82800
H2288       H  0.98885377  0.00769854  0.13451007     0.13000
C2289       C  0.01464243  0.97039685  0.11962168     0.02300
N2290       N  0.00073317  0.91242791  0.10150903    -0.81300
H2291       H  0.96531403  0.90650380  0.10384610     0.17800
C2292       C  0.02594890  0.94981477  0.12978323    -0.26200
C2293       C  0.04447418  0.95524053  0.13005061     0.35800
C2294       C  0.05174443  0.98205069  0.11995250    -0.20200
C2295       C  0.04023041  0.00227196  0.10962606    -0.25500
C2296       C  0.02178847  0.99664893  0.10933805     0.27200
H2297       H  0.02025226  0.92940244  0.13748630     0.13000
N2298       N  0.05581713  0.93355039  0.14043690    -0.82700
H2299       H  0.04555683  0.02302683  0.10192987     0.17800
N2300       N  0.01024783  0.01746935  0.09865861    -0.81300
H2301       H  0.04827832  0.91559105  0.14728014     0.33500
H2302       H  0.06393083  0.92026354  0.13158078     0.37900
H2303       H  0.01759666  0.03595037  0.09200157     0.33400
H2304       H  0.00458290  0.00216807  0.08884699     0.30100
H2305       H  0.99374014  0.89242975  0.09575308     0.33400
H2306       H  0.00665473  0.92571307  0.09105488     0.30100
H2307       H  0.94500824  0.01344789  0.12673082     0.38000
H2308       H  0.96030268  0.02257762  0.14230866     0.33500
C2309       C  0.88809201  0.55319868  0.12925975    -0.20300
C2310       C  0.89206112  0.57054723  0.11333976     0.35900
C2311       C  0.89104950  0.60588930  0.11294992    -0.26300
C2312       C  0.88588999  0.62403209  0.12806745     0.02400
C2313       C  0.88220578  0.60681890  0.14405962     0.27200
C2314       C  0.88350296  0.57145872  0.14455218    -0.25400
N2315       N  0.89692310  0.55211200  0.09761453    -0.82800
H2316       H  0.89403525  0.61937422  0.10076743     0.13000
C2317       C  0.88467377  0.66119323  0.12702685     0.02300
N2318       N  0.87685599  0.62532929  0.15959028    -0.81300
H2319       H  0.88025290  0.55801756  0.15667993     0.17800
C2320       C  0.86792202  0.67673679  0.12545010    -0.26200
C2321       C  0.86632849  0.71209834  0.12461745     0.35800
C2322       C  0.88186504  0.73218239  0.12588663    -0.20200
C2323       C  0.89862326  0.71624146  0.12716637    -0.25500
C2324       C  0.90017823  0.68102036  0.12764157     0.27200
H2325       H  0.85607631  0.66115621  0.12484510     0.13000
N2326       N  0.84900838  0.72747818  0.12313707    -0.82700
H2327       H  0.91061738  0.73139597  0.12790998     0.17800
N2328       N  0.91742479  0.66523515  0.12885718    -0.81300
H2329       H  0.83900591  0.70915978  0.12353598     0.33500
H2330       H  0.84816566  0.73851665  0.11052528     0.37900
H2331       H  0.92752331  0.68337517  0.12904907     0.33400
H2332       H  0.91807903  0.65258766  0.14105590     0.30100
H2333       H  0.87436913  0.60890888  0.17018693     0.33400
H2334       H  0.88760197  0.64044296  0.16343599     0.30100
H2335       H  0.90901023  0.53986016  0.10023390     0.38000
H2336       H  0.89924906  0.56857094  0.08699701     0.33500
C2337       C  0.88052385  0.23250905  0.12544139    -0.20300
C2338       C  0.86507350  0.21262821  0.12272716     0.35900
C2339       C  0.86661010  0.17720424  0.12270952    -0.26300
C2340       C  0.88323638  0.16141811  0.12485894     0.02400
C2341       C  0.89869398  0.18110839  0.12673692     0.27200
C2342       C  0.89718105  0.21636337  0.12709607    -0.25400
N2343       N  0.84785241  0.22819613  0.12070600    -0.82800
H2344       H  0.85480046  0.16176684  0.12112200     0.13000
C2345       C  0.88429833  0.12417539  0.12563743     0.02300
N2346       N  0.91585410  0.16514897  0.12840134    -0.81300
H2347       H  0.90912075  0.23137869  0.12883227     0.17800
C2348       C  0.88904927  0.10608937  0.11034801    -0.26200
C2349       C  0.88994219  0.07067651  0.11063439     0.35800
C2350       C  0.88609552  0.05325888  0.12655817    -0.20200
C2351       C  0.88190275  0.07143986  0.14197247    -0.25500
C2352       C  0.88092085  0.10681451  0.14165762     0.27200
H2353       H  0.89191114  0.11966473  0.09816499     0.13000
N2354       N  0.89469846  0.05228514  0.09486516    -0.82700
H2355       H  0.87887249  0.05792723  0.15413657     0.17800
N2356       N  0.87627697  0.12521566  0.15744897    -0.81300
H2357       H  0.89709551  0.06881820  0.08429531     0.33500
H2358       H  0.90674441  0.03984821  0.09744001     0.37900
H2359       H  0.87394674  0.10868529  0.16803507     0.33400
H2360       H  0.88731780  0.13978340  0.16104254     0.30100
H2361       H  0.92594280  0.18320787  0.12943338     0.33400
H2362       H  0.91594906  0.15159712  0.14034007     0.30100
H2363       H  0.84769156  0.24034277  0.10835678     0.38000
H2364       H  0.83784283  0.20990597  0.12010605     0.33500
C2365       C  0.95998543  0.44418575  0.12439788    -0.20300
C2366       C  0.97295209  0.41922029  0.12067723     0.35900
C2367       C  0.99106864  0.42803056  0.12022852    -0.26300
C2368       C  0.99654953  0.46113789  0.12345559     0.02400
C2369       C  0.98369776  0.48614612  0.12722125     0.27200
C2370       C  0.96549458  0.47735647  0.12778043    -0.25400
N2371       N  0.96770199  0.38486196  0.11764867    -0.82800
H2372       H  0.00102329  0.40898990  0.11731667     0.13000
C2373       C  0.01584717  0.46906339  0.12250623     0.02300
N2374       N  0.98920322  0.52027839  0.13040231    -0.81300
H2375       H  0.95556318  0.49648132  0.13060007     0.17800
C2376       C  0.02220991  0.48838285  0.10829874    -0.26200
C2377       C  0.04051744  0.49534558  0.10642551     0.35800
C2378       C  0.05278651  0.48334086  0.11943683    -0.20200
C2379       C  0.04622728  0.46322288  0.13345125    -0.25500
C2380       C  0.02795534  0.45594506  0.13508022     0.27200
H2381       H  0.01281474  0.49762948  0.09844651     0.13000
N2382       N  0.04651810  0.51462412  0.09137796    -0.82700
H2383       H  0.05531512  0.45345531  0.14342493     0.17800
N2384       N  0.02160076  0.43545691  0.14952656    -0.81300
H2385       H  0.03571667  0.52255267  0.08358860     0.33500
H2386       H  0.05407011  0.49851268  0.08336022     0.37900
H2387       H  0.03222140  0.42735192  0.15750969     0.33400
H2388       H  0.01351656  0.45062566  0.15753733     0.30100
H2389       H  0.97812065  0.53564672  0.13279353     0.33400
H2390       H  0.99685781  0.52040029  0.14205112     0.30100
H2391       H  0.96222430  0.37571663  0.12949120     0.38000
H2392       H  0.97881990  0.36981219  0.11488891     0.33500
C2393       C  0.95841736  0.48709767  0.38451563    -0.20300
C2394       C  0.97004849  0.49354226  0.39909094     0.35900
C2395       C  0.98826934  0.48597756  0.39752288    -0.26300
C2396       C  0.99507378  0.47155011  0.38201480     0.02400
C2397       C  0.98364907  0.46408476  0.36772421     0.27200
C2398       C  0.96544889  0.47201520  0.36906835    -0.25400
N2399       N  0.96346990  0.50768594  0.41543107    -0.82800
H2400       H  0.99724169  0.49097139  0.40854057     0.13000
C2401       C  0.01415830  0.46295626  0.38132829     0.02300
N2402       N  0.99061208  0.44843575  0.35194615    -0.81300
H2403       H  0.95682749  0.46685494  0.35782013     0.17800
C2404       C  0.01934918  0.43017983  0.38569730    -0.26200
C2405       C  0.03741600  0.42114449  0.38615627     0.35800
C2406       C  0.05052518  0.44547782  0.38187844    -0.20200
C2407       C  0.04521326  0.47819835  0.37708335    -0.25500
C2408       C  0.02706977  0.48726129  0.37691184     0.27200
H2409       H  0.00923521  0.41172925  0.38901729     0.13000
N2410       N  0.04240777  0.38710194  0.39044243    -0.82700
H2411       H  0.05524234  0.49674472  0.37367618     0.17800
N2412       N  0.02166442  0.52098889  0.37244155    -0.81300
H2413       H  0.03113970  0.37163984  0.39101333     0.33500
H2414       H  0.04766796  0.38733973  0.40333109     0.37900
H2415       H  0.03280743  0.53588267  0.36964279     0.33400
H2416       H  0.01416201  0.51978276  0.36071347     0.30100
H2417       H  0.98041538  0.44429448  0.34268882     0.33400
H2418       H  0.99949889  0.46535722  0.34605071     0.30100
H2419       H  0.95514190  0.48973481  0.42129640     0.38000
H2420       H  0.97389509  0.51182987  0.42443431     0.33500
C2421       C  0.87680173  0.49769791  0.30041088    -0.20300
C2422       C  0.88380179  0.46628538  0.29476551     0.35900
C2423       C  0.88405394  0.45822694  0.27647069    -0.26300
C2424       C  0.87708174  0.48040330  0.26364845     0.02400
C2425       C  0.86975770  0.51138670  0.26924725     0.27200
C2426       C  0.86967318  0.51967862  0.28749607    -0.25400
N2427       N  0.89023220  0.44229845  0.30762293    -0.82800
H2428       H  0.88941827  0.43421245  0.27218273     0.13000
C2429       C  0.87717209  0.47065636  0.24442580     0.02300
N2430       N  0.86257946  0.53446931  0.25631916    -0.81300
H2431       H  0.86428096  0.54377583  0.29161024     0.17800
C2432       C  0.86092357  0.46557157  0.23554586    -0.26200
C2433       C  0.86034116  0.45669101  0.21738004     0.35800
C2434       C  0.87647998  0.45255983  0.20773186    -0.20200
C2435       C  0.89274579  0.45790143  0.21672098    -0.25500
C2436       C  0.89324967  0.46680015  0.23490401     0.27200
H2437       H  0.84858859  0.46861292  0.24287671     0.13000
N2438       N  0.84337076  0.45223891  0.20873688    -0.82700
H2439       H  0.90518360  0.45467879  0.20960144     0.17800
N2440       N  0.91004172  0.47203265  0.24374541    -0.81300
H2441       H  0.83290790  0.45547977  0.21776250     0.33500
H2442       H  0.84204609  0.47133518  0.19922614     0.37900
H2443       H  0.92063430  0.46808109  0.23495415     0.33400
H2444       H  0.91061088  0.49733410  0.24755325     0.30100
H2445       H  0.85759208  0.55604592  0.26254972     0.33400
H2446       H  0.87310240  0.54233683  0.24820787     0.30100
H2447       H  0.87933102  0.43489007  0.31534787     0.38000
H2448       H  0.89494793  0.42057395  0.30132618     0.33500
C2449       C  0.88401771  0.89150302  0.37400469    -0.20300
C2450       C  0.90032501  0.87359015  0.37405230     0.35900
C2451       C  0.90009139  0.83830914  0.37607936    -0.26300
C2452       C  0.88393232  0.82065809  0.37772597     0.02400
C2453       C  0.86768074  0.83843329  0.37707161     0.27200
C2454       C  0.86789719  0.87362442  0.37542378    -0.25400
N2455       N  0.91702349  0.89123293  0.37283295    -0.82800
H2456       H  0.91255362  0.82443662  0.37641583     0.13000
C2457       C  0.88409812  0.78335352  0.37918212     0.02300
N2458       N  0.85102043  0.82059547  0.37794043    -0.81300
H2459       H  0.85535273  0.88725501  0.37524512     0.17800
C2460       C  0.87671902  0.76746345  0.39418928    -0.26200
C2461       C  0.87622994  0.73202913  0.39561168     0.35800
C2462       C  0.88318773  0.71217057  0.38162384    -0.20200
C2463       C  0.89047970  0.72845239  0.36662956    -0.25500
C2464       C  0.89096412  0.76363729  0.36525639     0.27200
H2465       H  0.87141247  0.78283411  0.40485245     0.13000
N2466       N  0.86887582  0.71636319  0.41121231    -0.82700
H2467       H  0.89564187  0.71365623  0.35568081     0.17800
N2468       N  0.89816505  0.77948628  0.34962019    -0.81300
H2469       H  0.86415027  0.73456539  0.42008363     0.33500
H2470       H  0.87925652  0.70372833  0.41773665     0.37900
H2471       H  0.90274435  0.76142457  0.34059485     0.33400
H2472       H  0.88775353  0.79238835  0.34329553     0.30100
H2473       H  0.84027465  0.83739229  0.37730947     0.33400
H2474       H  0.85014333  0.80536940  0.36662717     0.30100
H2475       H  0.91796403  0.90106531  0.35995770     0.38000
H2476       H  0.92772041  0.87448980  0.37424080     0.33500
C2477       C  0.88068034  0.21204600  0.38229035    -0.20300
C2478       C  0.89640398  0.23057601  0.38569949     0.35900
C2479       C  0.89602003  0.26581134  0.38439251    -0.26300
C2480       C  0.88028992  0.28273573  0.37976698     0.02400
C2481       C  0.86445502  0.26447795  0.37686153     0.27200
C2482       C  0.86479787  0.22914687  0.37815682    -0.25400
N2483       N  0.91266607  0.21351293  0.39048698    -0.82800
H2484       H  0.90803478  0.28022100  0.38691616     0.13000
C2485       C  0.88059757  0.31980340  0.37864803     0.02300
N2486       N  0.84819757  0.28190214  0.37248577    -0.81300
H2487       H  0.85279041  0.21485386  0.37544159     0.17800
C2488       C  0.88162574  0.33558662  0.36197034    -0.26200
C2489       C  0.88265196  0.37091025  0.36059828     0.35800
C2490       C  0.88228555  0.39049282  0.37626850    -0.20200
C2491       C  0.88130136  0.37438691  0.39291010    -0.25500
C2492       C  0.88055176  0.33924260  0.39425440     0.27200
H2493       H  0.88177909  0.32024907  0.35005105     0.13000
N2494       N  0.88339546  0.38683585  0.34343141    -0.82700
H2495       H  0.88112006  0.38937308  0.40495787     0.17800
N2496       N  0.87980642  0.32310940  0.41138388    -0.81300
H2497       H  0.88243696  0.36886300  0.33331445     0.33500
H2498       H  0.89601615  0.39772887  0.34215417     0.37900
H2499       H  0.88007446  0.34102295  0.42157064     0.33400
H2500       H  0.86751811  0.31080457  0.41230805     0.30100
H2501       H  0.83779307  0.26474564  0.37059818     0.33400
H2502       H  0.84470163  0.29665386  0.38346055     0.30100
H2503       H  0.91054549  0.20156699  0.40270889     0.38000
H2504       H  0.92298236  0.23081958  0.39248331     0.33500
C2505       C  0.95795493  0.99108283  0.38723541    -0.20300
C2506       C  0.97117808  0.01244786  0.39453180     0.35900
C2507       C  0.98914299  0.00233190  0.39421847    -0.26300
C2508       C  0.99422015  0.97148685  0.38673881     0.02400
C2509       C  0.98107897  0.94993080  0.37961889     0.27200
C2510       C  0.96307414  0.96003920  0.37984493    -0.25400
N2511       N  0.96642283  0.04473185  0.40179420    -0.82800
H2512       H  0.99931395  0.01871015  0.39970594     0.13000
C2513       C  0.01340867  0.96227328  0.38642985     0.02300
N2514       N  0.98610996  0.91806883  0.37204544    -0.81300
H2515       H  0.95298943  0.94367184  0.37418942     0.17800
C2516       C  0.01927946  0.93438503  0.39624605    -0.26200
C2517       C  0.03735620  0.92488760  0.39641815     0.35800
C2518       C  0.04995374  0.94404930  0.38661419    -0.20200
C2519       C  0.04392897  0.97204973  0.37678207    -0.25500
C2520       C  0.02582081  0.98138183  0.37663148     0.27200
H2521       H  0.00964657  0.91988504  0.40377381     0.13000
N2522       N  0.04279487  0.89550258  0.40625649    -0.82700
H2523       H  0.05338756  0.98685371  0.36920925     0.17800
N2524       N  0.01994910  0.01015528  0.36654508    -0.81300
H2525       H  0.03202209  0.88515011  0.41317631     0.33500
H2526       H  0.04681227  0.87734462  0.39702027     0.37900
H2527       H  0.03073174  0.02163597  0.36015851     0.33400
H2528       H  0.01140729  0.00149509  0.35653393     0.30100
H2529       H  0.97485051  0.90510656  0.36751152     0.33400
H2530       H  0.99398846  0.92297103  0.36087495     0.30100
H2531       H  0.96157093  0.05959216  0.39134504     0.38000
H2532       H  0.97768663  0.05706615  0.40678438     0.33500
C2533       C  0.88165724  0.00064230  0.29816481    -0.20300
C2534       C  0.89062931  0.97142018  0.29206800     0.35900
C2535       C  0.89094161  0.96406291  0.27369532    -0.26300
C2536       C  0.88227846  0.98487396  0.26124953     0.02400
C2537       C  0.87348335  0.01415210  0.26725959     0.27200
C2538       C  0.87315502  0.02156670  0.28556988    -0.25400
N2539       N  0.89893806  0.94875041  0.30451876    -0.82800
H2540       H  0.89752433  0.94138319  0.26908403     0.13000
C2541       C  0.88163216  0.97483695  0.24210189     0.02300
N2542       N  0.86500028  0.03637580  0.25469104    -0.81300
H2543       H  0.86636072  0.04416075  0.28999095     0.17800
C2544       C  0.86500744  0.96893315  0.23407564    -0.26200
C2545       C  0.86362465  0.95898218  0.21613681     0.35800
C2546       C  0.87931140  0.95497363  0.20581116    -0.20200
C2547       C  0.89594649  0.96114547  0.21390100    -0.25500
C2548       C  0.89727931  0.97067065  0.23192370     0.27200
H2549       H  0.85300835  0.97182759  0.24195641     0.13000
N2550       N  0.84632490  0.95305396  0.20845167    -0.82700
H2551       H  0.90804543  0.95778985  0.20623827     0.17800
N2552       N  0.91447307  0.97592620  0.23995186    -0.81300
H2553       H  0.83627821  0.95641185  0.21792586     0.33500
H2554       H  0.84423854  0.97135814  0.19864686     0.37900
H2555       H  0.92465314  0.97133701  0.23076880     0.33400
H2556       H  0.91534796  0.00135839  0.24343349     0.30100
H2557       H  0.85897518  0.05664653  0.26122711     0.33400
H2558       H  0.87498728  0.04652348  0.24661050     0.30100
H2559       H  0.88882409  0.93813711  0.31227085     0.38000
H2560       H  0.90513245  0.92880849  0.29786041     0.33500
C2561       C  0.70908986  0.60377169  0.37804012    -0.20300
C2562       C  0.71999318  0.60391572  0.36265711     0.35900
C2563       C  0.73857576  0.60194411  0.36453413    -0.26300
C2564       C  0.74656309  0.59937842  0.38133224     0.02400
C2565       C  0.73586054  0.59884489  0.39668931     0.27200
C2566       C  0.71719844  0.60118818  0.39491196    -0.25400
N2567       N  0.71221848  0.60563961  0.34516078    -0.82800
H2568       H  0.74695236  0.60206226  0.35278955     0.13000
C2569       C  0.76618869  0.59595909  0.38228721     0.02300
N2570       N  0.74398969  0.59566113  0.41395187    -0.81300
H2571       H  0.70898246  0.60133389  0.40675795     0.17800
C2572       C  0.77656146  0.62223164  0.38927584    -0.26200
C2573       C  0.79533458  0.62116337  0.38833089     0.35800
C2574       C  0.80370784  0.59321118  0.38022559    -0.20200
C2575       C  0.79320503  0.56651748  0.37385660    -0.25500
C2576       C  0.77457300  0.56748573  0.37493843     0.27200
H2577       H  0.76996509  0.64403674  0.39492700     0.13000
N2578       N  0.80581351  0.64864298  0.39506948    -0.82700
H2579       H  0.79959471  0.54459168  0.36809003     0.17800
N2580       N  0.76405120  0.53979069  0.36848024    -0.81300
H2581       H  0.79758123  0.66701680  0.40072476     0.33500
H2582       H  0.81216393  0.65998720  0.38423725     0.37900
H2583       H  0.77225749  0.52078677  0.36339707     0.33400
H2584       H  0.75735230  0.52940789  0.37937366     0.30100
H2585       H  0.73426016  0.59581425  0.42390301     0.33400
H2586       H  0.75018787  0.57206248  0.41453024     0.30100
H2587       H  0.70509093  0.58334709  0.34314555     0.38000
H2588       H  0.72212015  0.60634458  0.33538450     0.33500
C2589       C  0.62839755  0.98104154  0.38006299    -0.20300
C2590       C  0.64408698  0.96120441  0.37960116     0.35900
C2591       C  0.64261890  0.92583466  0.37975116    -0.26300
C2592       C  0.62587895  0.91014068  0.38038601     0.02400
C2593       C  0.61028462  0.92983488  0.38102370     0.27200
C2594       C  0.61170021  0.96506282  0.38092880    -0.25400
N2595       N  0.66131470  0.97682231  0.37805949    -0.82800
H2596       H  0.65453757  0.91037453  0.37919943     0.13000
C2597       C  0.62479472  0.87295715  0.38007965     0.02300
N2598       N  0.59307803  0.91391297  0.38154064    -0.81300
H2599       H  0.59965652  0.98020337  0.38129757     0.17800
C2600       C  0.62219663  0.85546743  0.39605286    -0.26200
C2601       C  0.62164003  0.82014158  0.39631500     0.35800
C2602       C  0.62343814  0.80192072  0.38030109    -0.20200
C2603       C  0.62535691  0.81959769  0.36421079    -0.25500
C2604       C  0.62621743  0.85502140  0.36397227     0.27200
H2605       H  0.62084892  0.86930849  0.40840439     0.13000
N2606       N  0.61911173  0.80284409  0.41285684    -0.82700
H2607       H  0.62681198  0.80570046  0.35189406     0.17800
N2608       N  0.62885414  0.87288057  0.34753425    -0.81300
H2609       H  0.60710035  0.81114258  0.41840185     0.33500
H2610       H  0.62945975  0.80975183  0.42145834     0.37900
H2611       H  0.62986488  0.85599532  0.33691462     0.33400
H2612       H  0.61746262  0.88747262  0.34517935     0.30100
H2613       H  0.58293259  0.93199661  0.38208631     0.33400
H2614       H  0.59136873  0.90095026  0.36955448     0.30100
H2615       H  0.66403770  0.98886971  0.39011901     0.38000
H2616       H  0.67126298  0.95856659  0.37649409     0.33500
C2617       C  0.63072917  0.30170016  0.36783644    -0.20300
C2618       C  0.61527653  0.32110583  0.36436255     0.35900
C2619       C  0.61630996  0.35646840  0.36516048    -0.26300
C2620       C  0.63246350  0.37274916  0.36913534     0.02400
C2621       C  0.64803998  0.35346699  0.37170425     0.27200
C2622       C  0.64698303  0.31822761  0.37118696    -0.25400
N2623       N  0.59853269  0.30499205  0.36058197    -0.82800
H2624       H  0.60437355  0.37142986  0.36310154     0.13000
C2625       C  0.63291250  0.41000187  0.37072153     0.02300
N2626       N  0.66486722  0.36980767  0.37483570    -0.81300
H2627       H  0.65897050  0.30352867  0.37347966     0.17800
C2628       C  0.63892953  0.42480419  0.38661175    -0.26200
C2629       C  0.63959312  0.46003804  0.38862893     0.35800
C2630       C  0.63381874  0.48090876  0.37448252    -0.20200
C2631       C  0.62791269  0.46578379  0.35855016    -0.25500
C2632       C  0.62746552  0.43070555  0.35650982     0.27200
H2633       H  0.64302436  0.40870075  0.39754183     0.13000
N2634       N  0.64551305  0.47441946  0.40515672    -0.82700
H2635       H  0.62360146  0.48143092  0.34751954     0.17800
N2636       N  0.62155251  0.41600230  0.34003857    -0.81300
H2637       H  0.64794022  0.45552208  0.41456499     0.33500
H2638       H  0.65783245  0.48585887  0.40277818     0.37900
H2639       H  0.61785564  0.43471889  0.33094125     0.33400
H2640       H  0.63239968  0.40323870  0.33447089     0.30100
H2641       H  0.67503481  0.35201374  0.37652903     0.33400
H2642       H  0.66802499  0.38358333  0.36340087     0.30100
H2643       H  0.59466255  0.29208057  0.37206760     0.38000
H2644       H  0.58860437  0.32291310  0.35803967     0.33500
C2645       C  0.70746818  0.09318442  0.37057014    -0.20300
C2646       C  0.71799471  0.09289415  0.35491998     0.35900
C2647       C  0.73662033  0.09091966  0.35639953    -0.26300
C2648       C  0.74491342  0.08855220  0.37305871     0.02400
C2649       C  0.73452696  0.08706802  0.38859260     0.27200
C2650       C  0.71588788  0.08954912  0.38722202    -0.25400
N2651       N  0.70981436  0.09461488  0.33760443    -0.82800
H2652       H  0.74477684  0.09140660  0.34450573     0.13000
C2653       C  0.76456754  0.08735435  0.37388518     0.02300
N2654       N  0.74299354  0.08324080  0.40565980    -0.81300
H2655       H  0.70797346  0.08951116  0.39926815     0.17800
C2656       C  0.77400120  0.11470959  0.38102273    -0.26200
C2657       C  0.79273491  0.11511523  0.38089308     0.35800
C2658       C  0.80211747  0.08789147  0.37337600    -0.20200
C2659       C  0.79257286  0.06032833  0.36650481    -0.25500
C2660       C  0.77388875  0.05961865  0.36689021     0.27200
H2661       H  0.76678055  0.13606409  0.38639682     0.13000
N2662       N  0.80213113  0.14360509  0.38783937    -0.82700
H2663       H  0.79974641  0.03897940  0.36105808     0.17800
N2664       N  0.76429365  0.03085646  0.36029971    -0.81300
H2665       H  0.79792192  0.16499108  0.38084973     0.33500
H2666       H  0.79847768  0.14660359  0.40116511     0.37900
H2667       H  0.77314363  0.01252144  0.35561995     0.33400
H2668       H  0.75753045  0.02009485  0.37105203     0.30100
H2669       H  0.73345809  0.08268124  0.41579228     0.33400
H2670       H  0.74933881  0.05975866  0.40580151     0.30100
H2671       H  0.70242498  0.07254118  0.33585334     0.38000
H2672       H  0.71948559  0.09485539  0.32759558     0.33500
C2673       C  0.70783396  0.83990980  0.13550102    -0.20300
C2674       C  0.71863687  0.83429990  0.15075621     0.35900
C2675       C  0.73719892  0.83656152  0.14926229    -0.26300
C2676       C  0.74520546  0.84559610  0.13317876     0.02400
C2677       C  0.73460547  0.85275262  0.11817991     0.27200
C2678       C  0.71599906  0.84947331  0.11941471    -0.25400
N2679       N  0.71082045  0.82670086  0.16776221    -0.82800
H2680       H  0.74554004  0.83174732  0.16079773     0.13000
C2681       C  0.76475385  0.84905023  0.13270418     0.02300
N2682       N  0.74279394  0.86346292  0.10184533    -0.81300
H2683       H  0.70790922  0.85404288  0.10769413     0.17800
C2684       C  0.77496327  0.82636753  0.12270963    -0.26200
C2685       C  0.79370541  0.82786054  0.12293904     0.35800
C2686       C  0.80227000  0.85291037  0.13324782    -0.20200
C2687       C  0.79182214  0.87559508  0.14318399    -0.25500
C2688       C  0.77318293  0.87399203  0.14294096     0.27200
H2689       H  0.76826736  0.80703591  0.11503270     0.13000
N2690       N  0.80397095  0.80373587  0.11302705    -0.82700
H2691       H  0.79818405  0.89514264  0.15097968     0.17800
N2692       N  0.76270307  0.89763040  0.15299700    -0.81300
H2693       H  0.81097506  0.78888278  0.12218963     0.33500
H2694       H  0.79559092  0.78746261  0.10597497     0.37900
H2695       H  0.77094130  0.91439263  0.15988993     0.33400
H2696       H  0.75530553  0.91203208  0.14394065     0.30100
H2697       H  0.73309911  0.86787340  0.09208509     0.33400
H2698       H  0.74899371  0.88659799  0.10425820     0.30100
H2699       H  0.72068354  0.82260888  0.17739344     0.38000
H2700       H  0.70369257  0.84800680  0.17181755     0.33500
C2701       C  0.63098358  0.73957990  0.20917263    -0.20300
C2702       C  0.62087603  0.71199606  0.21556735     0.35900
C2703       C  0.62046884  0.70527012  0.23396109    -0.26300
C2704       C  0.62989790  0.72540847  0.24608454     0.02400
C2705       C  0.63974397  0.75315646  0.23977315     0.27200
C2706       C  0.64032023  0.75971697  0.22145321    -0.25400
N2707       N  0.61131675  0.69056848  0.20345321    -0.82800
H2708       H  0.61308331  0.68373348  0.23885559     0.13000
C2709       C  0.63013286  0.71631666  0.26526492     0.02300
N2710       N  0.64900927  0.77475850  0.25204608    -0.81300
H2711       H  0.64789039  0.78121496  0.21680810     0.17800
C2712       C  0.64661986  0.71083810  0.27363433    -0.26200
C2713       C  0.64768287  0.70255520  0.29175619     0.35800
C2714       C  0.63179996  0.69869947  0.30171308    -0.20200
C2715       C  0.61526552  0.70428152  0.29330497    -0.25500
C2716       C  0.61427319  0.71318499  0.27519950     0.27200
H2717       H  0.65877507  0.71316145  0.26594488     0.13000
N2718       N  0.66485836  0.69851713  0.30007988    -0.82700
H2719       H  0.60304835  0.70135766  0.30082957     0.17800
N2720       N  0.59726409  0.71918991  0.26688770    -0.81300
H2721       H  0.67511894  0.70193341  0.29084717     0.33500
H2722       H  0.66622249  0.71770797  0.30950312     0.37900
H2723       H  0.58690847  0.71564185  0.27599950     0.33400
H2724       H  0.59684037  0.74452638  0.26308760     0.30100
H2725       H  0.65573543  0.79391484  0.24526540     0.33400
H2726       H  0.63942238  0.78651861  0.26000526     0.30100
H2727       H  0.62073910  0.67805304  0.19561966     0.38000
H2728       H  0.60430868  0.67195926  0.21037282     0.33500
C2729       C  0.63182450  0.45417227  0.12921475    -0.20300
C2730       C  0.63862391  0.47457272  0.11536004     0.35900
C2731       C  0.63927332  0.50972950  0.11764927    -0.26300
C2732       C  0.63304870  0.52491288  0.13332157     0.02400
C2733       C  0.62645714  0.50465039  0.14719899     0.27200
C2734       C  0.62588102  0.46960601  0.14499716    -0.25400
N2735       N  0.64434591  0.45979662  0.09886898    -0.82800
H2736       H  0.64415128  0.52552189  0.10694450     0.13000
C2737       C  0.63268112  0.56217050  0.13465722     0.02300
N2738       N  0.62037757  0.51980032  0.16347491    -0.81300
H2739       H  0.62081950  0.45423305  0.15578320     0.17800
C2740       C  0.61626949  0.57859142  0.13709877    -0.26200
C2741       C  0.61512904  0.61393342  0.13733075     0.35800
C2742       C  0.63079748  0.63322552  0.13514497    -0.20200
C2743       C  0.64726718  0.61662665  0.13310957    -0.25500
C2744       C  0.64837995  0.58132650  0.13293027     0.27200
H2745       H  0.60421990  0.56370762  0.13828941     0.13000
N2746       N  0.59807068  0.63016395  0.13908767    -0.82700
H2747       H  0.65935524  0.63130321  0.13162694     0.17800
N2748       N  0.66535430  0.56482311  0.13095867    -0.81300
H2749       H  0.58795156  0.61233620  0.14075528     0.33500
H2750       H  0.59541501  0.64254641  0.12707962     0.37900
H2751       H  0.67559455  0.58254313  0.12978771     0.33400
H2752       H  0.66784312  0.55129830  0.14265570     0.30100
H2753       H  0.61577375  0.50141627  0.17231406     0.33400
H2754       H  0.63137981  0.53120209  0.16954985     0.30100
H2755       H  0.63311101  0.44935150  0.09273047     0.38000
H2756       H  0.64915990  0.47829875  0.09021177     0.33500
C2757       C  0.62428593  0.13308542  0.12210112    -0.20300
C2758       C  0.63849807  0.11364972  0.11515265     0.35900
C2759       C  0.63768341  0.07850994  0.11573790    -0.26300
C2760       C  0.62291320  0.06186892  0.12292204     0.02400
C2761       C  0.60850305  0.08093217  0.12964750     0.27200
C2762       C  0.60940182  0.11635706  0.12929517    -0.25400
N2763       N  0.65410559  0.12929674  0.10792519    -0.82800
H2764       H  0.64894708  0.06406598  0.11087391     0.13000
C2765       C  0.62349137  0.02457078  0.12416802     0.02300
N2766       N  0.59304745  0.06428144  0.13674198    -0.81300
H2767       H  0.59836257  0.13091511  0.13453837     0.17800
C2768       C  0.62190118  0.00926701  0.14090626    -0.26200
C2769       C  0.62409444  0.97435728  0.14295585     0.35800
C2770       C  0.62789590  0.95428262  0.12788093    -0.20200
C2771       C  0.62968519  0.96964687  0.11117364    -0.25500
C2772       C  0.62730318  0.00453889  0.10911749     0.27200
H2773       H  0.61942520  0.02477601  0.15250278     0.13000
N2774       N  0.62280731  0.95931936  0.16033104    -0.82700
H2775       H  0.63237918  0.95422962  0.09959073     0.17800
N2776       N  0.62857415  0.01973210  0.09178939    -0.81300
H2777       H  0.61985903  0.97752687  0.16993496     0.33500
H2778       H  0.63536819  0.94954266  0.16356858     0.37900
H2779       H  0.63157124  0.00159976  0.08216199     0.33400
H2780       H  0.61599516  0.02944178  0.08857306     0.30100
H2781       H  0.58370024  0.08191621  0.14121488     0.33400
H2782       H  0.58699590  0.05111362  0.12631461     0.30100
H2783       H  0.65559340  0.12114083  0.09478293     0.38000
H2784       H  0.66518583  0.12100950  0.11520192     0.33500
C2785       C  0.70759809  0.33001922  0.12917842    -0.20300
C2786       C  0.71630144  0.35835140  0.12184851     0.35900
C2787       C  0.73507378  0.35954183  0.12187635    -0.26300
C2788       C  0.74524029  0.33305603  0.12905569     0.02400
C2789       C  0.73659670  0.30437489  0.13585481     0.27200
C2790       C  0.71788932  0.30334071  0.13607426    -0.25400
N2791       N  0.70611760  0.38608354  0.11483310    -0.82800
H2792       H  0.74183466  0.38154082  0.11665820     0.13000
C2793       C  0.76490820  0.33632008  0.13005405     0.02300
N2794       N  0.74688885  0.27629381  0.14231512    -0.81300
H2795       H  0.71129397  0.28123335  0.14137798     0.17800
C2796       C  0.77322744  0.33716121  0.14678847    -0.26200
C2797       C  0.79168966  0.34215653  0.14832348     0.35800
C2798       C  0.80205667  0.34685905  0.13285808    -0.20200
C2799       C  0.79376352  0.34470513  0.11609514    -0.25500
C2800       C  0.77530970  0.33925512  0.11454499     0.27200
H2801       H  0.76530026  0.33429217  0.15874273     0.13000
N2802       N  0.79987270  0.34174472  0.16557349    -0.82700
H2803       H  0.80164129  0.34788029  0.10413802     0.17800
N2804       N  0.76706632  0.33663959  0.09731459    -0.81300
H2805       H  0.79726425  0.31837759  0.17145066     0.33500
H2806       H  0.79382134  0.36035559  0.17334012     0.37900
H2807       H  0.77658044  0.33932817  0.08725588     0.33400
H2808       H  0.76195589  0.31224231  0.09615248     0.30100
H2809       H  0.73850309  0.25717090  0.14693147     0.33400
H2810       H  0.75388489  0.26631723  0.13150280     0.30100
H2811       H  0.69911305  0.39690357  0.12540759     0.38000
H2812       H  0.71457426  0.40476814  0.10985781     0.33500
C2813       C  0.62795066  0.23384204  0.20152638    -0.20300
C2814       C  0.61263718  0.21926228  0.20949274     0.35900
C2815       C  0.61299360  0.21041475  0.22770096    -0.26300
C2816       C  0.62807705  0.21649779  0.23829206     0.02400
C2817       C  0.64314233  0.23175198  0.23060653     0.27200
C2818       C  0.64303341  0.23979217  0.21237642    -0.25400
N2819       N  0.59665625  0.21398867  0.19929263    -0.82800
H2820       H  0.60137505  0.19895111  0.23374581     0.13000
C2821       C  0.62810480  0.20664000  0.25743090     0.02300
N2822       N  0.65844079  0.23940409  0.24144987    -0.81300
H2823       H  0.65485413  0.25118598  0.20671158     0.17800
C2824       C  0.63939527  0.18061646  0.26312839    -0.26200
C2825       C  0.64029944  0.17098741  0.28115572     0.35800
C2826       C  0.62987658  0.18834210  0.29401186    -0.20200
C2827       C  0.61832260  0.21410721  0.28809661    -0.25500
C2828       C  0.61741477  0.22350267  0.27000038     0.27200
H2829       H  0.64748434  0.16757901  0.25336947     0.13000
N2830       N  0.65162060  0.14335200  0.28629930    -0.82700
H2831       H  0.61022169  0.22755564  0.29767236     0.17800
N2832       N  0.60593396  0.25054409  0.26436624    -0.81300
H2833       H  0.65865932  0.13402896  0.27535514     0.33500
H2834       H  0.64334283  0.12381857  0.29062249     0.37900
H2835       H  0.59891546  0.26037331  0.27519636     0.33400
H2836       H  0.61404769  0.26994934  0.25959286     0.30100
H2837       H  0.66847788  0.25055275  0.23381392     0.33400
H2838       H  0.65450336  0.25738934  0.25081846     0.30100
H2839       H  0.59146401  0.23775079  0.19618744     0.38000
H2840       H  0.58695776  0.20187778  0.20695416     0.33500
C2841       C  0.30269843  0.83302910  0.37173276    -0.20300
C2842       C  0.29400438  0.85663732  0.38285823     0.35900
C2843       C  0.27520676  0.85693149  0.38370108    -0.26300
C2844       C  0.26496270  0.83442189  0.37354909     0.02400
C2845       C  0.27360141  0.81086383  0.36252462     0.27200
C2846       C  0.29228645  0.81063145  0.36159645    -0.25400
N2847       N  0.30419215  0.88055969  0.39298714    -0.82800
H2848       H  0.26847566  0.87528226  0.39198887     0.13000
C2849       C  0.24518392  0.83708739  0.37354986     0.02300
N2850       N  0.26330839  0.78699217  0.35244608    -0.81300
H2851       H  0.29875012  0.79210807  0.35320960     0.17800
C2852       C  0.23649824  0.84512524  0.35759048    -0.26200
C2853       C  0.21785049  0.84813449  0.35669457     0.35800
C2854       C  0.20750754  0.84378058  0.37234211    -0.20200
C2855       C  0.21630465  0.83490835  0.38828138    -0.25500
C2856       C  0.23501716  0.83139097  0.38901022     0.27200
H2857       H  0.24439452  0.84914010  0.34570808     0.13000
N2858       N  0.20948628  0.85559362  0.33989658    -0.82700
H2859       H  0.20862415  0.83134009  0.40032883     0.17800
N2860       N  0.24374233  0.82210949  0.40535510    -0.81300
H2861       H  0.21902774  0.85891966  0.32991569     0.33500
H2862       H  0.20195547  0.83453470  0.33626653     0.37900
H2863       H  0.23438708  0.81886784  0.41551474     0.33400
H2864       H  0.24979563  0.79865906  0.40338472     0.30100
H2865       H  0.27165474  0.77141917  0.34493184     0.33400
H2866       H  0.25671850  0.77139183  0.36151801     0.30100
H2867       H  0.31068054  0.89639550  0.38395575     0.38000
H2868       H  0.29577406  0.89588285  0.40056428     0.33500
C2869       C  0.45881500  0.73171212  0.38490733    -0.20300
C2870       C  0.46584605  0.70434605  0.37510988     0.35900
C2871       C  0.48428465  0.69811968  0.37557886    -0.26300
C2872       C  0.49569522  0.71796645  0.38598671     0.02400
C2873       C  0.48868492  0.74428854  0.39633976     0.27200
C2874       C  0.47036072  0.75106158  0.39559967    -0.25400
N2875       N  0.45432459  0.68285327  0.36486473    -0.82800
H2876       H  0.48983037  0.67761836  0.36783498     0.13000
C2877       C  0.51496338  0.71040733  0.38621358     0.02300
N2878       N  0.50022415  0.76399253  0.40754368    -0.81300
H2879       H  0.46516571  0.77202059  0.40322956     0.17800
C2880       C  0.52709364  0.73472085  0.38014936    -0.26200
C2881       C  0.54550987  0.72814605  0.38005914     0.35800
C2882       C  0.55175656  0.69667114  0.38625219    -0.20200
C2883       C  0.53954594  0.67252692  0.39237845    -0.25500
C2884       C  0.52120294  0.67907582  0.39241855     0.27200
H2885       H  0.52212871  0.75875935  0.37538227     0.13000
N2886       N  0.55782748  0.75322673  0.37380329    -0.82700
H2887       H  0.54431733  0.64817278  0.39688859     0.17800
N2888       N  0.50885670  0.65409532  0.39873112    -0.81300
H2889       H  0.55100415  0.77482365  0.36959939     0.33500
H2890       H  0.56578481  0.76043063  0.38458947     0.37900
H2891       H  0.51561152  0.63221664  0.40262315     0.33400
H2892       H  0.50273001  0.66370472  0.41013966     0.30100
H2893       H  0.49296362  0.78257502  0.41423001     0.33400
H2894       H  0.50543250  0.74794580  0.41731063     0.30100
H2895       H  0.44596060  0.67030738  0.37379825     0.38000
H2896       H  0.46170347  0.66424940  0.35832304     0.33500
C2897       C  0.38440220  0.63040769  0.37367897    -0.20300
C2898       C  0.39897273  0.61125527  0.36716888     0.35900
C2899       C  0.39842842  0.57580495  0.36831427    -0.26300
C2900       C  0.38363054  0.55906580  0.37557630     0.02400
C2901       C  0.36910877  0.57798145  0.38193100     0.27200
C2902       C  0.36966770  0.61322222  0.38098175    -0.25400
N2903       N  0.41439128  0.62756914  0.35978050    -0.82800
H2904       H  0.40957360  0.56105609  0.36344834     0.13000
C2905       C  0.38307864  0.52166118  0.37588577     0.02300
N2906       N  0.35372833  0.56125760  0.38916895    -0.81300
H2907       H  0.35831726  0.62730192  0.38590534     0.17800
C2908       C  0.38113670  0.50461264  0.39217660    -0.26200
C2909       C  0.37969111  0.46925660  0.39284262     0.35800
C2910       C  0.38035405  0.45067809  0.37684708    -0.20200
C2911       C  0.38244741  0.46785769  0.36061205    -0.25500
C2912       C  0.38369255  0.50308136  0.35994548     0.27200
H2913       H  0.38077400  0.51902342  0.40440912     0.13000
N2914       N  0.37840059  0.45223381  0.40968850    -0.82700
H2915       H  0.38305358  0.45364107  0.34832021     0.17800
N2916       N  0.38543225  0.52009512  0.34313216    -0.81300
H2917       H  0.37934033  0.46947101  0.42015820     0.33500
H2918       H  0.36564241  0.44177178  0.41049885     0.37900
H2919       H  0.38586711  0.50273500  0.33268696     0.33400
H2920       H  0.37393312  0.53461197  0.34120800     0.30100
H2921       H  0.34424505  0.57878778  0.39345941     0.33400
H2922       H  0.34777552  0.54753163  0.37888650     0.30100
H2923       H  0.41059284  0.63800281  0.34756149     0.38000
H2924       H  0.42435296  0.60992814  0.35691513     0.33500
C2925       C  0.38298847  0.12997430  0.37064120    -0.20300
C2926       C  0.39842952  0.11056614  0.36732138     0.35900
C2927       C  0.39720568  0.07523458  0.36766683    -0.26300
C2928       C  0.38093723  0.05929407  0.37138530     0.02400
C2929       C  0.36546770  0.07856075  0.37416973     0.27200
C2930       C  0.36665932  0.11368255  0.37386342    -0.25400
N2931       N  0.41530137  0.12664367  0.36418551    -0.82800
H2932       H  0.40901395  0.06002493  0.36544532     0.13000
C2933       C  0.38016554  0.02228939  0.37241731     0.02300
N2934       N  0.34862834  0.06228110  0.37728369    -0.81300
H2935       H  0.35470952  0.12845870  0.37613899     0.17800
C2936       C  0.37652880  0.00683747  0.38880932    -0.26200
C2937       C  0.37551978  0.97159650  0.39028122     0.35800
C2938       C  0.37826318  0.95168137  0.37495803    -0.20200
C2939       C  0.38165797  0.96750568  0.35853709    -0.25500
C2940       C  0.38260626  0.00259241  0.35711360     0.27200
H2941       H  0.37462741  0.02240470  0.40049515     0.13000
N2942       N  0.37255001  0.95615472  0.40733285    -0.82700
H2943       H  0.38366560  0.95235832  0.34671625     0.17800
N2944       N  0.38604607  0.01835595  0.34022507    -0.81300
H2945       H  0.37217840  0.97440963  0.41734786     0.33500
H2946       H  0.35985890  0.94529758  0.40704225     0.37900
H2947       H  0.38771329  0.00020693  0.33029060     0.33400
H2948       H  0.37472555  0.03235394  0.33676161     0.30100
H2949       H  0.33854164  0.08012432  0.37922665     0.33400
H2950       H  0.34528027  0.04900687  0.36574123     0.30100
H2951       H  0.41889440  0.13909975  0.37590425     0.38000
H2952       H  0.42523831  0.10869255  0.36180512     0.33500
C2953       C  0.20759066  0.34729665  0.37388498    -0.20300
C2954       C  0.21705319  0.34864898  0.39016059     0.35900
C2955       C  0.23567395  0.34424065  0.39015138    -0.26300
C2956       C  0.24505129  0.33929376  0.37421926     0.02400
C2957       C  0.23559149  0.33800272  0.35796775     0.27200
C2958       C  0.21697547  0.34178765  0.35800028    -0.25400
N2959       N  0.20784299  0.35540000  0.40654486    -0.82800
H2960       H  0.24296097  0.34496674  0.40261487     0.13000
C2961       C  0.26475637  0.33517668  0.37469247     0.02300
N2962       N  0.24496631  0.33339027  0.34146727    -0.81300
H2963       H  0.20974999  0.34079387  0.34550102     0.17800
C2964       C  0.27232195  0.30608040  0.36733622    -0.26200
C2965       C  0.29087224  0.30142444  0.36695237     0.35800
C2966       C  0.30220500  0.32666834  0.37397415    -0.20200
C2967       C  0.29460647  0.35527264  0.38192023    -0.25500
C2968       C  0.27597938  0.35991357  0.38224067     0.27200
H2969       H  0.26365334  0.28678190  0.36193743     0.13000
N2970       N  0.29820758  0.27089802  0.35968191    -0.82700
H2971       H  0.30323994  0.37452669  0.38740715     0.17800
N2972       N  0.26843534  0.38990239  0.38987515    -0.81300
H2973       H  0.28808333  0.25517748  0.35493159     0.33500
H2974       H  0.30447359  0.25790483  0.37007922     0.37900
H2975       H  0.27848008  0.40548350  0.39490963     0.33400
H2976       H  0.26216510  0.40331984  0.37963433     0.30100
H2977       H  0.23604070  0.33279428  0.33075655     0.33400
H2978       H  0.25310203  0.35445267  0.33955827     0.30100
H2979       H  0.20260595  0.37978982  0.40571443     0.38000
H2980       H  0.21675744  0.35538287  0.41726857     0.33500
C2981       C  0.55254059  0.19999679  0.38096708    -0.20300
C2982       C  0.54605054  0.23058161  0.37385500     0.35900
C2983       C  0.52757687  0.23686154  0.37389678    -0.26300
C2984       C  0.51562360  0.21314840  0.38090833     0.02400
C2985       C  0.52209724  0.18273783  0.38807774     0.27200
C2986       C  0.54048815  0.17649650  0.38806822    -0.25400
N2987       N  0.55821471  0.25524245  0.36691674    -0.82800
H2988       H  0.52244598  0.26028097  0.36848650     0.13000
C2989       C  0.49631631  0.22054371  0.38107453     0.02300
N2990       N  0.50992821  0.15836339  0.39533325    -0.81300
H2991       H  0.54542073  0.15283983  0.39337236     0.17800
C2992       C  0.48469078  0.20010293  0.37124633    -0.26200
C2993       C  0.46617522  0.20550894  0.37162133     0.35800
C2994       C  0.45921964  0.23227377  0.38191861    -0.20200
C2995       C  0.47099448  0.25237668  0.39192699    -0.25500
C2996       C  0.48945001  0.24672307  0.39163565     0.27200
H2997       H  0.49012954  0.17972006  0.36334220     0.13000
N2998       N  0.45448935  0.18375812  0.36173823    -0.82700
H2999       H  0.46584966  0.27307909  0.39978451     0.17800
N3000       N  0.50126522  0.26736795  0.40204304    -0.81300
H3001       H  0.46179167  0.16568317  0.35471950     0.33500
H3002       H  0.44673343  0.17062250  0.37095979     0.37900
H3003       H  0.49408801  0.28573214  0.40898114     0.33400
H3004       H  0.50725551  0.25190367  0.41162496     0.30100
H3005       H  0.51682981  0.13713648  0.39991661     0.33400
H3006       H  0.50382296  0.16923280  0.40643466     0.30100
H3007       H  0.56602836  0.26368091  0.37754824     0.38000
H3008       H  0.55126352  0.27623907  0.36211416     0.33500
C3009       C  0.30568385  0.59098060  0.12772207    -0.20300
C3010       C  0.29714001  0.56688323  0.11682957     0.35900
C3011       C  0.27837119  0.56578318  0.11633991    -0.26300
C3012       C  0.26808864  0.58828057  0.12645209     0.02400
C3013       C  0.27661358  0.61292942  0.13688763     0.27200
C3014       C  0.29526325  0.61380825  0.13754426    -0.25400
N3015       N  0.30745709  0.54326047  0.10663452    -0.82800
H3016       H  0.27171410  0.54675818  0.10842583     0.13000
C3017       C  0.24844384  0.58452353  0.12704512     0.02300
N3018       N  0.26624557  0.63700908  0.14675860    -0.81300
H3019       H  0.30169463  0.63290278  0.14560069     0.17800
C3020       C  0.24037873  0.57811429  0.14348635    -0.26200
C3021       C  0.22187027  0.57468180  0.14494408     0.35800
C3022       C  0.21099261  0.57740288  0.12957762    -0.20200
C3023       C  0.21915031  0.58396670  0.11307345    -0.25500
C3024       C  0.23778011  0.58750456  0.11165330     0.27200
H3025       H  0.24855665  0.57572847  0.15534474     0.13000
N3026       N  0.21425097  0.56895972  0.16215886    -0.82700
H3027       H  0.21101535  0.58591610  0.10118230     0.17800
N3028       N  0.24590240  0.59413360  0.09469657    -0.81300
H3029       H  0.21787128  0.58899703  0.17042634     0.33500
H3030       H  0.21983151  0.54691236  0.16741074     0.37900
H3031       H  0.23621144  0.59538753  0.08468459     0.33400
H3032       H  0.25181258  0.61793944  0.09536205     0.30100
H3033       H  0.27455392  0.65336175  0.15384665     0.33400
H3034       H  0.25924076  0.65178183  0.13756248     0.30100
H3035       H  0.31432596  0.52778698  0.11560938     0.38000
H3036       H  0.29910287  0.52753254  0.09921561     0.33500
C3037       C  0.46101433  0.69279419  0.12171611    -0.20300
C3038       C  0.46687578  0.72318519  0.12954315     0.35900
C3039       C  0.48517304  0.73089349  0.12946328    -0.26300
C3040       C  0.49758464  0.70871369  0.12188087     0.02400
C3041       C  0.49178343  0.67843829  0.11411117     0.27200
C3042       C  0.47354841  0.67083293  0.11404256    -0.25400
N3043       N  0.45429064  0.74610629  0.13740732    -0.82800
H3044       H  0.48982665  0.75416544  0.13538651     0.13000
C3045       C  0.51669840  0.71743206  0.12202727     0.02300
N3046       N  0.50447846  0.65555915  0.10637654    -0.81300
H3047       H  0.46913729  0.64728512  0.10824125     0.17800
C3048       C  0.52851880  0.69791161  0.13217271    -0.26200
C3049       C  0.54687642  0.70484415  0.13232208     0.35800
C3050       C  0.55347899  0.73215913  0.12214935    -0.20200
C3051       C  0.54148601  0.75141422  0.11186408    -0.25500
C3052       C  0.52317765  0.74424248  0.11167074     0.27200
H3053       H  0.52335456  0.67709664  0.13995097     0.13000
N3054       N  0.55875826  0.68409585  0.14264473    -0.82700
H3055       H  0.54632901  0.77257462  0.10415308     0.17800
N3056       N  0.51111405  0.76399228  0.10099849    -0.81300
H3057       H  0.56704276  0.67143503  0.13370246     0.33500
H3058       H  0.55168051  0.66557611  0.14956108     0.37900
H3059       H  0.51800007  0.78297708  0.09424447     0.33400
H3060       H  0.50574605  0.74813657  0.09126747     0.30100
H3061       H  0.49804350  0.63423960  0.10134255     0.33400
H3062       H  0.51033838  0.66773191  0.09551897     0.30100
H3063       H  0.44603184  0.75513840  0.12722711     0.38000
H3064       H  0.46084726  0.76702554  0.14274745     0.33500
C3065       C  0.37988080  0.68497068  0.20582777    -0.20300
C3066       C  0.36376168  0.68611954  0.21563497     0.35900
C3067       C  0.36418337  0.69383938  0.23390603    -0.26300
C3068       C  0.38020813  0.70178712  0.24259686     0.02400
C3069       C  0.39625386  0.70167878  0.23280070     0.27200
C3070       C  0.39595105  0.69309553  0.21457990    -0.25400
N3071       N  0.34693135  0.68030049  0.20695666    -0.82800
H3072       H  0.35184781  0.69429309  0.24140166     0.13000
C3073       C  0.37974824  0.71191981  0.26172191     0.02300
N3074       N  0.41274914  0.71065712  0.24135446    -0.81300
H3075       H  0.40836276  0.69254918  0.20722031     0.17800
C3076       C  0.38935665  0.69339757  0.27447636    -0.26200
C3077       C  0.38916215  0.70246357  0.29263336     0.35800
C3078       C  0.37909602  0.73085085  0.29820791    -0.20200
C3079       C  0.36935203  0.74903486  0.28533251    -0.25500
C3080       C  0.36969692  0.74007827  0.26723031     0.27200
H3081       H  0.39694964  0.67159774  0.27023303     0.13000
N3082       N  0.39908131  0.68278325  0.30534178    -0.82700
H3083       H  0.36172389  0.77096692  0.28930465     0.17800
N3084       N  0.36011307  0.75987294  0.25431614    -0.81300
H3085       H  0.40601192  0.66331947  0.29901881     0.33500
H3086       H  0.38989767  0.67131543  0.31386646     0.37900
H3087       H  0.35336934  0.77975633  0.26047286     0.33400
H3088       H  0.36950052  0.77073821  0.24579184     0.30100
H3089       H  0.42333285  0.70940621  0.23233544     0.33400
H3090       H  0.41172927  0.73583104  0.24531273     0.30100
H3091       H  0.34495470  0.69989047  0.19783897     0.38000
H3092       H  0.33642934  0.68171136  0.21606390     0.33500
C3093       C  0.38786756  0.79249447  0.12979391    -0.20300
C3094       C  0.39094510  0.81135941  0.14547035     0.35900
C3095       C  0.39024400  0.84680357  0.14468689    -0.26300
C3096       C  0.38668910  0.86352476  0.12862004     0.02400
C3097       C  0.38408829  0.84490896  0.11294046     0.27200
C3098       C  0.38472117  0.80965708  0.11367545    -0.25400
N3099       N  0.39400184  0.79468485  0.16219873    -0.82800
H3100       H  0.39231929  0.86150326  0.15665378     0.13000
C3101       C  0.38558737  0.90065877  0.12826408     0.02300
N3102       N  0.38081131  0.86194494  0.09634069    -0.81300
H3103       H  0.38255921  0.79545755  0.10155427     0.17800
C3104       C  0.40090166  0.91919056  0.12419137    -0.26200
C3105       C  0.40028212  0.95447302  0.12310304     0.35800
C3106       C  0.38397476  0.97145767  0.12613695    -0.20200
C3107       C  0.36855460  0.95277314  0.12993384    -0.25500
C3108       C  0.36925684  0.91739872  0.13118936     0.27200
H3109       H  0.41334086  0.90601088  0.12178358     0.13000
N3110       N  0.41611297  0.97318768  0.11878337    -0.82700
H3111       H  0.35610857  0.96585137  0.13243707     0.17800
N3112       N  0.35361020  0.89840886  0.13580292    -0.81300
H3113       H  0.42697398  0.95697869  0.11701155     0.33500
H3114       H  0.41390500  0.98509848  0.10655283     0.37900
H3115       H  0.34274510  0.91451408  0.13778903     0.33400
H3116       H  0.35034266  0.88313198  0.12496129     0.30100
H3117       H  0.37937567  0.84456008  0.08599558     0.33400
H3118       H  0.36860484  0.87455531  0.09738760     0.30100
H3119       H  0.40660025  0.78340923  0.16159814     0.38000
H3120       H  0.39466079  0.81224305  0.17253973     0.33500
C3121       C  0.38585549  0.29278615  0.12273262    -0.20300
C3122       C  0.38326702  0.30960236  0.10632553     0.35900
C3123       C  0.38341060  0.34491081  0.10566896    -0.26300
C3124       C  0.38596145  0.36390505  0.12112442     0.02400
C3125       C  0.38882149  0.34742229  0.13752119     0.27200
C3126       C  0.38891001  0.31194408  0.13814915    -0.25400
N3127       N  0.38075428  0.29091280  0.09022020    -0.82800
H3128       H  0.38135031  0.35759074  0.09304339     0.13000
C3129       C  0.38542584  0.40111077  0.11997050     0.02300
N3130       N  0.39129860  0.36683181  0.15346990    -0.81300
H3131       H  0.39085566  0.29923390  0.15077697     0.17800
C3132       C  0.36979261  0.41816585  0.12484350    -0.26200
C3133       C  0.36893744  0.45356298  0.12444072     0.35800
C3134       C  0.38413890  0.47206710  0.11928452    -0.20200
C3135       C  0.39966610  0.45491039  0.11407728    -0.25500
C3136       C  0.40041215  0.41950955  0.11424386     0.27200
H3137       H  0.35831159  0.40376167  0.12915236     0.13000
N3138       N  0.35305493  0.47077776  0.13014524    -0.82700
H3139       H  0.41130642  0.46923814  0.11012779     0.17800
N3140       N  0.41634457  0.40213558  0.10883574    -0.81300
H3141       H  0.34344380  0.45348842  0.13438250     0.33500
H3142       H  0.34762820  0.48302762  0.11905972     0.37900
H3143       H  0.42609624  0.41933184  0.10481658     0.33400
H3144       H  0.42145641  0.38960565  0.11998669     0.30100
H3145       H  0.39305365  0.35094374  0.16444661     0.33400
H3146       H  0.40313608  0.38047270  0.15207660     0.30100
H3147       H  0.36852412  0.29808021  0.08464935     0.38000
H3148       H  0.39084548  0.29770519  0.08132929     0.33500
C3149       C  0.30361065  0.09239341  0.13246744    -0.20300
C3150       C  0.29451853  0.07240975  0.11970887     0.35900
C3151       C  0.27574799  0.07234482  0.11936449    -0.26300
C3152       C  0.26585069  0.09148593  0.13150241     0.02400
C3153       C  0.27478728  0.11150841  0.14412674     0.27200
C3154       C  0.29348973  0.11158276  0.14456278    -0.25400
N3155       N  0.30423372  0.05191565  0.10729770    -0.82800
H3156       H  0.26875960  0.05662092  0.10985940     0.13000
C3157       C  0.24614981  0.08848753  0.13176655     0.02300
N3158       N  0.26477952  0.13189082  0.15638688    -0.81300
H3159       H  0.30015113  0.12737185  0.15425467     0.17800
C3160       C  0.23802129  0.07633754  0.14721659    -0.26200
C3161       C  0.21952651  0.07227103  0.14820148     0.35800
C3162       C  0.20865908  0.08033604  0.13329717    -0.20200
C3163       C  0.21691199  0.09279751  0.11780637    -0.25500
C3164       C  0.23554250  0.09695027  0.11690258     0.27200
H3165       H  0.24616277  0.06957466  0.15862477     0.13000
N3166       N  0.21199489  0.05977985  0.16443335    -0.82700
H3167       H  0.20887285  0.09901096  0.10626217     0.17800
N3168       N  0.24373257  0.10970230  0.10098818    -0.81300
H3169       H  0.21559071  0.07610665  0.17473952     0.33500
H3170       H  0.21761614  0.03617144  0.16710287     0.37900
H3171       H  0.23412165  0.11410728  0.09114511     0.33400
H3172       H  0.24937270  0.13305835  0.10406655     0.30100
H3173       H  0.27333225  0.14507392  0.16489125     0.33400
H3174       H  0.25784334  0.14995512  0.14894736     0.30100
H3175       H  0.31071634  0.03306855  0.11459789     0.38000
H3176       H  0.29553155  0.03964401  0.09856222     0.33500
C3177       C  0.55112605  0.23553189  0.11132425    -0.20300
C3178       C  0.53804810  0.25650266  0.10323472     0.35900
C3179       C  0.52003912  0.24688188  0.10368217    -0.26300
C3180       C  0.51478497  0.21680935  0.11177545     0.02400
C3181       C  0.52769211  0.19529478  0.11934007     0.27200
C3182       C  0.54574674  0.20492646  0.11910569    -0.25400
N3183       N  0.54286769  0.28815458  0.09526275    -0.82800
H3184       H  0.50995574  0.26307972  0.09781423     0.13000
C3185       C  0.49557968  0.20863043  0.11238961     0.02300
N3186       N  0.52240057  0.16381493  0.12718643    -0.81300
H3187       H  0.55563957  0.18862280  0.12519923     0.17800
C3188       C  0.48791704  0.19079979  0.09830459    -0.26200
C3189       C  0.46959439  0.18321065  0.09813592     0.35800
C3190       C  0.45872022  0.19314175  0.11272858    -0.20200
C3191       C  0.46655499  0.21207615  0.12654403    -0.25500
C3192       C  0.48482582  0.21996921  0.12647655     0.27200
H3193       H  0.49630238  0.18298095  0.08731840     0.13000
N3194       N  0.46217670  0.16533823  0.08322531    -0.82700
H3195       H  0.45850893  0.22033267  0.13767018     0.17800
N3196       N  0.49251062  0.23967247  0.14058448    -0.81300
H3197       H  0.47213134  0.15884155  0.07411572     0.33500
H3198       H  0.45359127  0.18191157  0.07656597     0.37900
H3199       H  0.48273726  0.24664167  0.14978717     0.33400
H3200       H  0.50160145  0.22438819  0.14741885     0.30100
H3201       H  0.53354902  0.15070919  0.13194720     0.33400
H3202       H  0.51447051  0.16919442  0.13825104     0.30100
H3203       H  0.54957502  0.28279963  0.08341236     0.38000
H3204       H  0.53148265  0.30177053  0.09158544     0.33500
C3205       C  0.38303301  0.19559086  0.20330204    -0.20300
C3206       C  0.39877284  0.20866003  0.21123871     0.35900
C3207       C  0.39851318  0.21901661  0.22919521    -0.26300
C3208       C  0.38297839  0.21657217  0.23947376     0.02400
C3209       C  0.36724249  0.20415362  0.23161029     0.27200
C3210       C  0.36742115  0.19385939  0.21370270    -0.25400
N3211       N  0.41507701  0.21076870  0.20128753    -0.82800
H3212       H  0.41056399  0.22868675  0.23531745     0.13000
C3213       C  0.38335306  0.22637752  0.25859556     0.02300
N3214       N  0.35115923  0.20173254  0.24193280    -0.81300
H3215       H  0.35521564  0.18425502  0.20787903     0.17800
C3216       C  0.37342251  0.25429287  0.26425229    -0.26200
C3217       C  0.37277176  0.26354721  0.28232707     0.35800
C3218       C  0.38190740  0.24378823  0.29522153    -0.20200
C3219       C  0.39225009  0.21630577  0.28936128    -0.25500
C3220       C  0.39304045  0.20741976  0.27122400     0.27200
H3221       H  0.36619742  0.26903319  0.25444660     0.13000
N3222       N  0.36302775  0.29317826  0.28751408    -0.82700
H3223       H  0.39944263  0.20114641  0.29900135     0.17800
N3224       N  0.40338108  0.17883350  0.26559516    -0.81300
H3225       H  0.35686941  0.30439811  0.27649792     0.33500
H3226       H  0.37227893  0.31064631  0.29233378     0.37900
H3227       H  0.40982841  0.16766986  0.27646158     0.33400
H3228       H  0.39452131  0.16087799  0.26055752     0.30100
H3229       H  0.34069393  0.19230436  0.23419054     0.33400
H3230       H  0.35341940  0.18416117  0.25207168     0.30100
H3231       H  0.41932938  0.18612503  0.19880032     0.38000
H3232       H  0.42512750  0.22210734  0.20885787     0.33500
C3233       C  0.12540904  0.82756038  0.45517104    -0.20300
C3234       C  0.10964673  0.82506779  0.46543554     0.35900
C3235       C  0.11089864  0.82256656  0.48404313    -0.26300
C3236       C  0.12748846  0.82262614  0.49269399     0.02400
C3237       C  0.14323841  0.82206137  0.48247681     0.27200
C3238       C  0.14203626  0.82411395  0.46377745    -0.25400
N3239       N  0.09240841  0.82621979  0.45701470    -0.82800
H3240       H  0.09883227  0.82233059  0.49197043     0.13000
C3241       C  0.12789499  0.82805365  0.51226420     0.02300
N3242       N  0.16035960  0.82123447  0.49113415    -0.81300
H3243       H  0.15419216  0.82553261  0.45604021     0.17800
C3244       C  0.13490056  0.80346424  0.52378430    -0.26200
C3245       C  0.13461756  0.80810111  0.54241685     0.35800
C3246       C  0.12716088  0.83794612  0.54955314    -0.20200
C3247       C  0.12033450  0.86248385  0.53789588    -0.25500
C3248       C  0.12089021  0.85811213  0.51939926     0.27200
H3249       H  0.14032572  0.78045946  0.51822981     0.13000
N3250       N  0.14154180  0.78243446  0.55405658    -0.82700
H3251       H  0.11489355  0.88566608  0.54323789     0.17800
N3252       N  0.11454243  0.88430567  0.50773524    -0.81300
H3253       H  0.14662521  0.76226136  0.54669712     0.33500
H3254       H  0.13086564  0.77297477  0.56146519     0.37900
H3255       H  0.10978416  0.90481345  0.51505176     0.33400
H3256       H  0.12545891  0.89305210  0.50042763     0.30100
H3257       H  0.17061372  0.82087159  0.48172118     0.33400
H3258       H  0.16177365  0.84364862  0.49829011     0.30100
H3259       H  0.09128334  0.80481603  0.44899994     0.38000
H3260       H  0.08222979  0.82470356  0.46647814     0.33500
C3261       C  0.12228044  0.34151434  0.54813282    -0.20300
C3262       C  0.13249251  0.31539929  0.54030720     0.35900
C3263       C  0.13277025  0.31188018  0.52163146    -0.26300
C3264       C  0.12322693  0.33400452  0.51053164     0.02400
C3265       C  0.11304598  0.36007857  0.51834674     0.27200
C3266       C  0.11252650  0.36325348  0.53696671    -0.25400
N3267       N  0.14238525  0.29228955  0.55128512    -0.82800
H3268       H  0.14036340  0.29156917  0.51569149     0.13000
C3269       C  0.12385996  0.32994823  0.49076415     0.02300
N3270       N  0.10349951  0.38367835  0.50731537    -0.81300
H3271       H  0.10482186  0.38356720  0.54276812     0.17800
C3272       C  0.10777079  0.32810332  0.48123521    -0.26200
C3273       C  0.10745740  0.32927322  0.46255339     0.35800
C3274       C  0.12365268  0.33226193  0.45304311    -0.20200
C3275       C  0.13985802  0.33082158  0.46250684    -0.25500
C3276       C  0.14013831  0.32987526  0.48127562     0.27200
H3277       H  0.09530429  0.32677278  0.48847916     0.13000
N3278       N  0.09069014  0.32818179  0.45322884    -0.82700
H3279       H  0.15234456  0.33262518  0.45532878     0.17800
N3280       N  0.15685872  0.33026334  0.49068892    -0.81300
H3281       H  0.08005824  0.32638337  0.46216414     0.33500
H3282       H  0.09055583  0.30615013  0.44561865     0.37900
H3283       H  0.16755006  0.32979996  0.48177421     0.33400
H3284       H  0.15767230  0.35308278  0.49757088     0.30100
H3285       H  0.09656962  0.40114359  0.51509593     0.33400
H3286       H  0.11291578  0.39729672  0.50001637     0.30100
H3287       H  0.13318449  0.27846957  0.55874987     0.38000
H3288       H  0.14935146  0.27494012  0.54346478     0.33500
C3289       C  0.12671499  0.54711048  0.63273831    -0.20300
C3290       C  0.14297905  0.56393068  0.63598064     0.35900
C3291       C  0.14347981  0.59926754  0.63548766    -0.26300
C3292       C  0.12813211  0.61800919  0.63151500     0.02400
C3293       C  0.11182270  0.60133739  0.62840926     0.27200
C3294       C  0.11123590  0.56590228  0.62916454    -0.25400
N3295       N  0.15894758  0.54495144  0.63958172    -0.82800
H3296       H  0.15593607  0.61231284  0.63794431     0.13000
C3297       C  0.12940908  0.65517711  0.63077731     0.02300
N3298       N  0.09603365  0.62048740  0.62434199    -0.81300
H3299       H  0.09884376  0.55286960  0.62639447     0.17800
C3300       C  0.12834883  0.67169801  0.61429040    -0.26200
C3301       C  0.12970175  0.70700399  0.61314427     0.35800
C3302       C  0.13202577  0.72593631  0.62886961    -0.20200
C3303       C  0.13310365  0.70923270  0.64533610    -0.25500
C3304       C  0.13186374  0.67402189  0.64643999     0.27200
H3305       H  0.12643386  0.65694486  0.60231552     0.13000
N3306       N  0.12783282  0.72369696  0.59624795    -0.82700
H3307       H  0.13471724  0.72382395  0.65741649     0.17800
N3308       N  0.13285215  0.65727866  0.66339539    -0.81300
H3309       H  0.12510157  0.70622413  0.58620787     0.33500
H3310       H  0.14016417  0.73438778  0.59309408     0.37900
H3311       H  0.13472509  0.67476089  0.67362451     0.33400
H3312       H  0.12050773  0.64584330  0.66568799     0.30100
H3313       H  0.08517901  0.60444724  0.62225388     0.33400
H3314       H  0.09297674  0.63504277  0.63551882     0.30100
H3315       H  0.15705202  0.53206174  0.65157125     0.38000
H3316       H  0.16979812  0.56107392  0.64151526     0.33500
C3317       C  0.12900247  0.22625367  0.62290943    -0.20300
C3318       C  0.14315667  0.20694277  0.61572490     0.35900
C3319       C  0.14219872  0.17149473  0.61634852    -0.26300
C3320       C  0.12742582  0.15507201  0.62386563     0.02400
C3321       C  0.11313827  0.17421519  0.63052518     0.27200
C3322       C  0.11405659  0.20941410  0.62995138    -0.25400
N3323       N  0.15868493  0.22308376  0.60847010    -0.82800
H3324       H  0.15315353  0.15653795  0.61123475     0.13000
C3325       C  0.12714686  0.11779335  0.62505518     0.02300
N3326       N  0.09777904  0.15776300  0.63797137    -0.81300
H3327       H  0.10295460  0.22380229  0.63519017     0.17800
C3328       C  0.12588415  0.10229966  0.64183315    -0.26200
C3329       C  0.12580782  0.06700303  0.64354242     0.35800
C3330       C  0.12710120  0.04693842  0.62810062    -0.20200
C3331       C  0.12800132  0.06258619  0.61133455    -0.25500
C3332       C  0.12792342  0.09775344  0.60963800     0.27200
H3333       H  0.12525246  0.11788342  0.65364746     0.13000
N3334       N  0.12489236  0.05162574  0.66084740    -0.82700
H3335       H  0.12869448  0.04721652  0.59944311     0.17800
N3336       N  0.12854043  0.11320654  0.59233371    -0.81300
H3337       H  0.12383568  0.06999756  0.67075429     0.33500
H3338       H  0.13697255  0.03907469  0.66306361     0.37900
H3339       H  0.12916433  0.09487263  0.58237168     0.33400
H3340       H  0.11653382  0.12619648  0.59045055     0.30100
H3341       H  0.08850939  0.17546407  0.64252246     0.33400
H3342       H  0.09154424  0.14435431  0.62773947     0.30100
H3343       H  0.15483899  0.23466436  0.59656291     0.38000
H3344       H  0.16832958  0.20518417  0.60503316     0.33500
C3345       C  0.12466542  0.58236391  0.95462397    -0.20300
C3346       C  0.13693382  0.60562105  0.96198319     0.35900
C3347       C  0.13754027  0.61060517  0.98051958    -0.26300
C3348       C  0.12614730  0.59282353  0.99195033     0.02400
C3349       C  0.11383256  0.56979647  0.98472208     0.27200
C3350       C  0.11312902  0.56503473  0.96623832    -0.25400
N3351       N  0.14873899  0.62441953  0.95079821    -0.82800
H3352       H  0.14704593  0.62831211  0.98603897     0.13000
C3353       C  0.12768712  0.59692742  0.01154862     0.02300
N3354       N  0.10235474  0.55068793  0.99625188    -0.81300
H3355       H  0.10375111  0.54684193  0.96097726     0.17800
C3356       C  0.11278719  0.60774571  0.02129910    -0.26200
C3357       C  0.11278840  0.60675213  0.04001134     0.35800
C3358       C  0.12813794  0.59531764  0.04913853    -0.20200
C3359       C  0.14347113  0.58684515  0.03939061    -0.25500
C3360       C  0.14326741  0.58678057  0.02066611     0.27200
H3361       H  0.10086834  0.61565081  0.01423573     0.13000
N3362       N  0.09712531  0.61640769  0.04978229    -0.82700
H3363       H  0.15518845  0.57770095  0.04637290     0.17800
N3364       N  0.15842617  0.57457251  0.01088822    -0.81300
H3365       H  0.08694070  0.62389608  0.04109727     0.33500
H3366       H  0.10041980  0.63750909  0.05741971     0.37900
H3367       H  0.16874542  0.56777205  0.01956959     0.33400
H3368       H  0.15454542  0.55252729  0.00433790     0.30100
H3369       H  0.09397557  0.53497126  0.98885395     0.33400
H3370       H  0.11044158  0.53492447  0.00399323     0.30100
H3371       H  0.16183887  0.61933506  0.95481741     0.38000
H3372       H  0.14628212  0.65005578  0.95284960     0.33500
C3373       C  0.13094620  0.46684214  0.79991669    -0.20300
C3374       C  0.11717508  0.47760112  0.78839786     0.35900
C3375       C  0.11810925  0.46987831  0.77014683    -0.26300
C3376       C  0.13234784  0.45104913  0.76311620     0.02400
C3377       C  0.14574766  0.43907446  0.77481828     0.27200
C3378       C  0.14511451  0.44775090  0.79302123    -0.25400
N3379       N  0.10257189  0.49727683  0.79518048    -0.82800
H3380       H  0.10786640  0.47935662  0.76125121     0.13000
C3381       C  0.13315788  0.44511867  0.74343860     0.02300
N3382       N  0.15983490  0.41794156  0.76820448    -0.81300
H3383       H  0.15563036  0.43937832  0.80191477     0.17800
C3384       C  0.14851714  0.45422520  0.73382275    -0.26200
C3385       C  0.14928374  0.45083695  0.71512674     0.35800
C3386       C  0.13422212  0.43879843  0.70575778    -0.20200
C3387       C  0.11892117  0.42967882  0.71538978    -0.25500
C3388       C  0.11836044  0.43200313  0.73407441     0.27200
H3389       H  0.15986222  0.46454122  0.74090770     0.13000
N3390       N  0.16517944  0.46002164  0.70563120    -0.82700
H3391       H  0.10752806  0.41948313  0.70832181     0.17800
N3392       N  0.10292602  0.42046420  0.74362673    -0.81300
H3393       H  0.17506702  0.46817688  0.71446371     0.33500
H3394       H  0.16202691  0.48058742  0.69749813     0.37900
H3395       H  0.09323176  0.41141755  0.73482899     0.33400
H3396       H  0.10689613  0.40001779  0.75149034     0.30100
H3397       H  0.16853069  0.41112614  0.77850287     0.33400
H3398       H  0.15400256  0.39564943  0.76363126     0.30100
H3399       H  0.10773218  0.52034669  0.79946452     0.38000
H3400       H  0.09342032  0.50275089  0.78505398     0.33500
C3401       C  0.12561686  0.09725538  0.05114375    -0.20300
C3402       C  0.10974347  0.10133107  0.04110118     0.35900
C3403       C  0.11053334  0.10125649  0.02238736    -0.26300
C3404       C  0.12682331  0.09766124  0.01341427     0.02400
C3405       C  0.14280935  0.09677030  0.02334766     0.27200
C3406       C  0.14205617  0.09680929  0.04210855    -0.25400
N3407       N  0.09282854  0.10471453  0.04991983    -0.82800
H3408       H  0.09829804  0.10273183  0.01470593     0.13000
C3409       C  0.12665889  0.09118674  0.99386733     0.02300
N3410       N  0.15967407  0.09412206  0.01437585    -0.81300
H3411       H  0.15431310  0.09408046  0.04964555     0.17800
C3412       C  0.13502852  0.11350123  0.98201373    -0.26200
C3413       C  0.13485939  0.10761848  0.96346622     0.35800
C3414       C  0.12616593  0.07866019  0.95667227    -0.20200
C3415       C  0.11788753  0.05645988  0.96868371    -0.25500
C3416       C  0.11821860  0.06216818  0.98710533     0.27200
H3417       H  0.14154196  0.13573397  0.98725647     0.13000
N3418       N  0.14325421  0.13114820  0.95159586    -0.82700
H3419       H  0.11142221  0.03394407  0.96372414     0.17800
N3420       N  0.11025798  0.03822145  0.99906417    -0.81300
H3421       H  0.14923194  0.15071281  0.95874127     0.33500
H3422       H  0.13323150  0.14212216  0.94380062     0.37900
H3423       H  0.10453487  0.01827756  0.99200453     0.33400
H3424       H  0.12049559  0.02784877  0.00681273     0.30100
H3425       H  0.17016490  0.09391826  0.02357056     0.33400
H3426       H  0.15999255  0.07086667  0.00786414     0.30100
H3427       H  0.09317357  0.12710328  0.05722773     0.38000
H3428       H  0.08250059  0.10732206  0.04063663     0.33500
C3429       C  0.13102429  0.86755943  0.87588219    -0.20300
C3430       C  0.13509082  0.84857934  0.89136227     0.35900
C3431       C  0.13555950  0.81335274  0.89037856    -0.26300
C3432       C  0.13193637  0.79671119  0.87438511     0.02400
C3433       C  0.12808027  0.81543540  0.85890202     0.27200
C3434       C  0.12756303  0.85074674  0.85981810    -0.25400
N3435       N  0.13829286  0.86500364  0.90812200    -0.82800
H3436       H  0.13828539  0.79868579  0.90225917     0.13000
C3437       C  0.13119616  0.75956765  0.87436479     0.02300
N3438       N  0.12474690  0.79842795  0.84234878    -0.81300
H3439       H  0.12467290  0.86519899  0.84790742     0.17800
C3440       C  0.11499197  0.74386699  0.87029605    -0.26200
C3441       C  0.11343913  0.70878826  0.87072013     0.35800
C3442       C  0.12837519  0.68885967  0.87537471    -0.20200
C3443       C  0.14458467  0.70470015  0.87962651    -0.25500
C3444       C  0.14618334  0.73992716  0.87902080     0.27200
H3445       H  0.10338902  0.75900351  0.86699703     0.13000
N3446       N  0.09652890  0.69363643  0.86686512    -0.82700
H3447       H  0.15613003  0.68954361  0.88307249     0.17800
N3448       N  0.16295293  0.75585484  0.88292702    -0.81300
H3449       H  0.08716074  0.70309897  0.87586720     0.33500
H3450       H  0.09265803  0.70103207  0.85406325     0.37900
H3451       H  0.17264380  0.73782429  0.88609528     0.33400
H3452       H  0.16725411  0.76787549  0.87131665     0.30100
H3453       H  0.12212969  0.81583338  0.83221503     0.33400
H3454       H  0.13645636  0.78577170  0.83880035     0.30100
H3455       H  0.12638200  0.87661904  0.91197807     0.38000
H3456       H  0.14140789  0.84740869  0.91802603     0.33500
C3457       C  0.12457882  0.18833995  0.88102962    -0.20300
C3458       C  0.10836816  0.20619694  0.87855661     0.35900
C3459       C  0.10859397  0.24150995  0.87780136    -0.26300
C3460       C  0.12448992  0.25940555  0.88011028     0.02400
C3461       C  0.14052544  0.24185675  0.88345312     0.27200
C3462       C  0.14042994  0.20645013  0.88381058    -0.25400
N3463       N  0.09168541  0.18851398  0.87721020    -0.82800
H3464       H  0.09625442  0.25527010  0.87574305     0.13000
C3465       C  0.12396629  0.29665391  0.87963503     0.02300
N3466       N  0.15683332  0.26010173  0.88631303    -0.81300
H3467       H  0.15284911  0.19296787  0.88587355     0.17800
C3468       C  0.12758816  0.31451506  0.89525507    -0.26200
C3469       C  0.12714186  0.34984863  0.89550741     0.35800
C3470       C  0.12337945  0.36777131  0.87960291    -0.20200
C3471       C  0.11916404  0.34968480  0.86409034    -0.25500
C3472       C  0.11948748  0.31425454  0.86393784     0.27200
H3473       H  0.13058209  0.30071704  0.90735947     0.13000
N3474       N  0.13021467  0.36749851  0.91192923    -0.82700
H3475       H  0.11613553  0.36320928  0.85191620     0.17800
N3476       N  0.11558979  0.29604999  0.84786984    -0.81300
H3477       H  0.13287562  0.35058654  0.92228616     0.33500
H3478       H  0.11837039  0.37992820  0.91525385     0.37900
H3479       H  0.11244459  0.31269741  0.83752932     0.33400
H3480       H  0.12722295  0.28339782  0.84407997     0.30100
H3481       H  0.16740540  0.24348629  0.88874394     0.33400
H3482       H  0.15984854  0.27286756  0.87452121     0.30100
H3483       H  0.08945415  0.17666373  0.88944047     0.38000
H3484       H  0.08111179  0.20537438  0.87532219     0.33500
C3485       C  0.13319042  0.97498289  0.79936257    -0.20300
C3486       C  0.12552981  0.94546776  0.79212513     0.35900
C3487       C  0.12654279  0.93969676  0.77360931    -0.26300
C3488       C  0.13486877  0.96292227  0.76220660     0.02400
C3489       C  0.14219705  0.99258888  0.76934582     0.27200
C3490       C  0.14131787  0.99825726  0.78775928    -0.25400
N3491       N  0.11695177  0.92135216  0.80352034    -0.82800
H3492       H  0.12082230  0.91700127  0.76800571     0.13000
C3493       C  0.13593171  0.95603205  0.74278712     0.02300
N3494       N  0.15059436  0.01679100  0.75784201    -0.81300
H3495       H  0.14697563  0.02125990  0.79306615     0.17800
C3496       C  0.12681610  0.97707890  0.73080519    -0.26200
C3497       C  0.12757566  0.97152840  0.71231332     0.35800
C3498       C  0.13761192  0.94409165  0.70564012    -0.20200
C3499       C  0.14710122  0.92360757  0.71773433    -0.25500
C3500       C  0.14636740  0.92931042  0.73618605     0.27200
H3501       H  0.11901430  0.99789031  0.73595500     0.13000
N3502       N  0.11823165  0.99371313  0.70035734    -0.82700
H3503       H  0.15482586  0.90248099  0.71283812     0.17800
N3504       N  0.15614162  0.90803717  0.74827110    -0.81300
H3505       H  0.12779254  0.00612305  0.69266019     0.33500
H3506       H  0.11137607  0.01234298  0.70741613     0.37900
H3507       H  0.16297770  0.88922724  0.74132286     0.33400
H3508       H  0.16583588  0.92290199  0.75446553     0.30100
H3509       H  0.15502555  0.03760987  0.76511558     0.33400
H3510       H  0.16194360  0.00540744  0.75243685     0.30100
H3511       H  0.11183740  0.90134118  0.79606059     0.38000
H3512       H  0.12670899  0.91116069  0.81192130     0.33500
C3513       C  0.88099500  0.83707493  0.95654804    -0.20300
C3514       C  0.87079432  0.81160593  0.96489078     0.35900
C3515       C  0.87114432  0.80852577  0.98363896    -0.26300
C3516       C  0.88158558  0.83016218  0.99416740     0.02400
C3517       C  0.89174880  0.85549687  0.98583332     0.27200
C3518       C  0.89139932  0.85856783  0.96722468    -0.25400
N3519       N  0.86037433  0.78869202  0.95436073    -0.82800
H3520       H  0.86337053  0.78903777  0.99008061     0.13000
C3521       C  0.88155626  0.82722973  0.01395694     0.02300
N3522       N  0.90224122  0.87835974  0.99636774    -0.81300
H3523       H  0.89911817  0.87841870  0.96103539     0.17800
C3524       C  0.89773357  0.82154395  0.02296589    -0.26200
C3525       C  0.89892599  0.82452709  0.04160496     0.35800
C3526       C  0.88355345  0.83312984  0.05148240    -0.20200
C3527       C  0.86710220  0.83608578  0.04257379    -0.25500
C3528       C  0.86599287  0.83378977  0.02390284     0.27200
H3529       H  0.90962769  0.81605837  0.01531318     0.13000
N3530       N  0.91573115  0.81947029  0.05048451    -0.82700
H3531       H  0.85525560  0.84257755  0.05007629     0.17800
N3532       N  0.84932036  0.83990428  0.01495719    -0.81300
H3533       H  0.92572262  0.81359215  0.04129929     0.33500
H3534       H  0.91438662  0.79846184  0.05877963     0.37900
H3535       H  0.83916478  0.84440007  0.02417880     0.33400
H3536       H  0.85069994  0.86202384  0.00751681     0.30100
H3537       H  0.90903291  0.89543186  0.98823592     0.33400
H3538       H  0.89345679  0.89253727  0.00415076     0.30100
H3539       H  0.86921469  0.77460305  0.94659466     0.38000
H3540       H  0.85367461  0.77154319  0.96252493     0.33500
C3541       C  0.95909206  0.92371422  0.87923493    -0.20300
C3542       C  0.96826776  0.93244862  0.86340788     0.35900
C3543       C  0.98656298  0.94048783  0.86418767    -0.26300
C3544       C  0.99596673  0.93955651  0.88033623     0.02400
C3545       C  0.98701876  0.93003661  0.89601344     0.27200
C3546       C  0.96873338  0.92233118  0.89532202    -0.25400
N3547       N  0.95912295  0.93277990  0.84658078    -0.82800
H3548       H  0.99353687  0.94771330  0.85215708     0.13000
C3549       C  0.01507699  0.94951400  0.88083857     0.02300
N3550       N  0.99658408  0.92828608  0.91259851    -0.81300
H3551       H  0.96193706  0.91558128  0.90752364     0.17800
C3552       C  0.02008417  0.97768152  0.89088658    -0.26200
C3553       C  0.03796204  0.98820485  0.89181299     0.35800
C3554       C  0.05128380  0.96973272  0.88263880    -0.20200
C3555       C  0.04616405  0.94147536  0.87255645    -0.25500
C3556       C  0.02822550  0.93118116  0.87158173     0.27200
H3557       H  0.00988202  0.99184723  0.89783926     0.13000
N3558       N  0.04247585  0.01798490  0.90172303    -0.82700
H3559       H  0.05622115  0.92711426  0.86551771     0.17800
N3560       N  0.02331886  0.90202415  0.86136868    -0.81300
H3561       H  0.03119337  0.02808349  0.90791862     0.33500
H3562       H  0.04684567  0.03611373  0.89261958     0.37900
H3563       H  0.03454481  0.89140552  0.85531321     0.33400
H3564       H  0.01840775  0.88396888  0.87022972     0.30100
H3565       H  0.98808335  0.92104286  0.92292747     0.33400
H3566       H  0.00619845  0.90930390  0.91141732     0.30100
H3567       H  0.95531825  0.90802048  0.84376023     0.38000
H3568       H  0.96771605  0.94020465  0.83636225     0.33500
C3569       C  0.88189981  0.34036844  0.95839676    -0.20300
C3570       C  0.87536881  0.31072567  0.96660374     0.35900
C3571       C  0.87621509  0.30755210  0.98530145    -0.26300
C3572       C  0.88311413  0.33354552  0.99591475     0.02400
C3573       C  0.88919004  0.36336845  0.98778440     0.27200
C3574       C  0.88870059  0.36628818  0.96919668    -0.25400
N3575       N  0.86839311  0.28363245  0.95603664    -0.82800
H3576       H  0.87148463  0.28474263  0.99165543     0.13000
C3577       C  0.88380052  0.32992749  0.01558804     0.02300
N3578       N  0.89571052  0.39073765  0.99849641    -0.81300
H3579       H  0.89346960  0.38932374  0.96309802     0.17800
C3580       C  0.90039637  0.33091564  0.02421576    -0.26200
C3581       C  0.90162109  0.33232662  0.04287561     0.35800
C3582       C  0.88582196  0.33360716  0.05317025    -0.20200
C3583       C  0.86924707  0.33008422  0.04447923    -0.25500
C3584       C  0.86808496  0.32836401  0.02580273     0.27200
H3585       H  0.91245174  0.33141981  0.01627852     0.13000
N3586       N  0.91884585  0.33298616  0.05133194    -0.82700
H3587       H  0.85704303  0.33059035  0.05217099     0.17800
N3588       N  0.85098574  0.32646645  0.01714918    -0.81300
H3589       H  0.92903427  0.33222920  0.04185486     0.33500
H3590       H  0.92004258  0.31097685  0.05890635     0.37900
H3591       H  0.84073989  0.32530509  0.02655120     0.33400
H3592       H  0.84911207  0.34882674  0.01001090     0.30100
H3593       H  0.89978996  0.41083408  0.99047652     0.33400
H3594       H  0.88504948  0.39959783  0.00614009     0.30100
H3595       H  0.85605427  0.29157398  0.95108124     0.38000
H3596       H  0.86571021  0.26266541  0.96402827     0.33500
C3597       C  0.86841334  0.72392130  0.87863814    -0.20300
C3598       C  0.86739282  0.70568982  0.86250885     0.35900
C3599       C  0.86760940  0.67034884  0.86291016    -0.26300
C3600       C  0.86889168  0.65290769  0.87904659     0.02400
C3601       C  0.86956543  0.67091301  0.89520154     0.27200
C3602       C  0.86911497  0.70638622  0.89485674    -0.25400
N3603       N  0.86626169  0.72319900  0.84577406    -0.82800
H3604       H  0.86703781  0.65626208  0.85057514     0.13000
C3605       C  0.87005627  0.61571701  0.87864470     0.02300
N3606       N  0.87138743  0.65312488  0.91178033    -0.81300
H3607       H  0.87010064  0.72038331  0.90719269     0.17800
C3608       C  0.88682119  0.60036383  0.87702404    -0.26200
C3609       C  0.88849698  0.56509087  0.87593023     0.35800
C3610       C  0.87301876  0.54479582  0.87686690    -0.20200
C3611       C  0.85622364  0.56047299  0.87839931    -0.25500
C3612       C  0.85458151  0.59574147  0.87907077     0.27200
H3613       H  0.89862872  0.61605787  0.87648685     0.13000
N3614       N  0.90587340  0.54994438  0.87452658    -0.82700
H3615       H  0.84430325  0.54509262  0.87897289     0.17800
N3616       N  0.83728464  0.61140523  0.87986092    -0.81300
H3617       H  0.91582794  0.56830150  0.87538763     0.33500
H3618       H  0.90691616  0.53967822  0.86176921     0.37900
H3619       H  0.82723141  0.59317473  0.87978862     0.33400
H3620       H  0.83631051  0.62399362  0.89202625     0.30100
H3621       H  0.87209318  0.67008382  0.92239434     0.33400
H3622       H  0.85981584  0.63893171  0.91368020     0.30100
H3623       H  0.85417120  0.73637815  0.84559109     0.38000
H3624       H  0.86580463  0.70614295  0.83519087     0.33500
C3625       C  0.88439409  0.22267725  0.88190522    -0.20300
C3626       C  0.89960651  0.20571154  0.87506482     0.35900
C3627       C  0.89966019  0.17042723  0.87392825    -0.26300
C3628       C  0.88530484  0.15143679  0.88017696     0.02400
C3629       C  0.87054321  0.16789448  0.88791581     0.27200
C3630       C  0.87019662  0.20337231  0.88866615    -0.25400
N3631       N  0.91514013  0.22421989  0.86959551    -0.82800
H3632       H  0.91117017  0.15750507  0.86848756     0.13000
C3633       C  0.88642583  0.11418822  0.87929899     0.02300
N3634       N  0.85590345  0.14848404  0.89476579    -0.81300
H3635       H  0.85860926  0.21593817  0.89415636     0.17800
C3636       C  0.88831990  0.09598913  0.89514739    -0.26200
C3637       C  0.88937326  0.06076601  0.89498529     0.35800
C3638       C  0.88836861  0.04315681  0.87869740    -0.20200
C3639       C  0.88723320  0.06143272  0.86273137    -0.25500
C3640       C  0.88620544  0.09689922  0.86287786     0.27200
H3641       H  0.88898630  0.10924241  0.90773552     0.13000
N3642       N  0.89160147  0.04288820  0.91142135    -0.82700
H3643       H  0.88637972  0.04799764  0.85021390     0.17800
N3644       N  0.88461123  0.11540435  0.84649658    -0.81300
H3645       H  0.90332672  0.05140248  0.91748322     0.33500
H3646       H  0.88090488  0.04901380  0.91972817     0.37900
H3647       H  0.88468654  0.09898676  0.83562466     0.33400
H3648       H  0.87215306  0.12730184  0.84648561     0.30100
H3649       H  0.84613726  0.16431552  0.90012723     0.33400
H3650       H  0.84998675  0.13596871  0.88403928     0.30100
H3651       H  0.92051748  0.23553054  0.88096340     0.38000
H3652       H  0.92496698  0.20801625  0.86467011     0.33500
C3653       C  0.95516487  0.43917832  0.87962722    -0.20300
C3654       C  0.96397464  0.44411571  0.86315675     0.35900
C3655       C  0.98232850  0.45155380  0.86305167    -0.26300
C3656       C  0.99207890  0.45347674  0.87895806     0.02400
C3657       C  0.98341077  0.44805226  0.89531920     0.27200
C3658       C  0.96507039  0.44131453  0.89549491    -0.25400
N3659       N  0.95443524  0.44101729  0.84661974    -0.82800
H3660       H  0.98909599  0.45584321  0.85052297     0.13000
C3661       C  0.01125959  0.46235225  0.87852962     0.02300
N3662       N  0.99334606  0.44920075  0.91170385    -0.81300
H3663       H  0.95850075  0.43753352  0.90817026     0.17800
C3664       C  0.01683838  0.49159775  0.88731601    -0.26200
C3665       C  0.03490235  0.50060623  0.88800607     0.35800
C3666       C  0.04777731  0.47946305  0.87995523    -0.20200
C3667       C  0.04208835  0.45056917  0.87073488    -0.25500
C3668       C  0.02393704  0.44179133  0.86993795     0.27200
H3669       H  0.00695917  0.50760393  0.89359094     0.13000
N3670       N  0.04011295  0.53146451  0.89655854    -0.82700
H3671       H  0.05186023  0.43442679  0.86439979     0.17800
N3672       N  0.01836120  0.41192376  0.86067704    -0.81300
H3673       H  0.02903581  0.54373147  0.90198926     0.33500
H3674       H  0.04518992  0.54745634  0.88673304     0.37900
H3675       H  0.02932609  0.39975027  0.85496700     0.33400
H3676       H  0.01306232  0.39532095  0.87008785     0.30100
H3677       H  0.98497368  0.44499089  0.92259235     0.33400
H3678       H  0.00251843  0.42932601  0.91150739     0.30100
H3679       H  0.95049188  0.41587376  0.84536389     0.38000
H3680       H  0.96282082  0.44605923  0.83583971     0.33500
C3681       C  0.88260257  0.58705674  0.55372571    -0.20300
C3682       C  0.86683280  0.58431819  0.54342586     0.35900
C3683       C  0.86764167  0.58937912  0.52488018    -0.26300
C3684       C  0.88380931  0.59714084  0.51647402     0.02400
C3685       C  0.89932888  0.60167466  0.52682416     0.27200
C3686       C  0.89859201  0.59633061  0.54531445    -0.25400
N3687       N  0.85024573  0.57501068  0.55165595    -0.82800
H3688       H  0.85578075  0.58585659  0.51682348     0.13000
C3689       C  0.88477522  0.59621432  0.49675275     0.02300
N3690       N  0.91576050  0.61171515  0.51851797    -0.81300
H3691       H  0.91063137  0.59902419  0.55319694     0.17800
C3692       C  0.88019711  0.62466261  0.48655596    -0.26200
C3693       C  0.88096742  0.62382898  0.46775485     0.35800
C3694       C  0.88660567  0.59405498  0.45914450    -0.20200
C3695       C  0.89107081  0.56572012  0.46950036    -0.25500
C3696       C  0.89002217  0.56633853  0.48812741     0.27200
H3697       H  0.87602419  0.64746331  0.49328809     0.13000
N3698       N  0.87622869  0.65302952  0.45745138    -0.82700
H3699       H  0.89498807  0.54254273  0.46297320     0.17800
N3700       N  0.89367004  0.53635731  0.49831039    -0.81300
H3701       H  0.87234364  0.67276402  0.46580057     0.33500
H3702       H  0.88769520  0.66110452  0.45080121     0.37900
H3703       H  0.89679364  0.51623289  0.48990378     0.33400
H3704       H  0.90501910  0.54067545  0.50606045     0.30100
H3705       H  0.92581895  0.61462789  0.52805555     0.33400
H3706       H  0.91991577  0.59232258  0.51010398     0.30100
H3707       H  0.85163951  0.55042162  0.55647808     0.38000
H3708       H  0.83995005  0.57443300  0.54224788     0.33500
C3709       C  0.04875791  0.44093182  0.62589230    -0.20300
C3710       C  0.03898773  0.44841264  0.61024499     0.35900
C3711       C  0.02067550  0.45556711  0.61147708    -0.26300
C3712       C  0.01198889  0.45583522  0.62798422     0.02400
C3713       C  0.02176119  0.44918246  0.64363011     0.27200
C3714       C  0.04006530  0.44184466  0.64243295    -0.25400
N3715       N  0.04770086  0.44913228  0.59321876    -0.82800
H3716       H  0.01309555  0.46103752  0.59951242     0.13000
C3717       C  0.99272073  0.46407868  0.62865194     0.02300
N3718       N  0.01303785  0.44993139  0.66064362    -0.81300
H3719       H  0.04750402  0.43613858  0.65444819     0.17800
C3720       C  0.98052227  0.44014931  0.63503985    -0.26200
C3721       C  0.96207339  0.44696994  0.63526123     0.35800
C3722       C  0.95582418  0.47844691  0.62897597    -0.20200
C3723       C  0.96816608  0.50234630  0.62278121    -0.25500
C3724       C  0.98651216  0.49560643  0.62267840     0.27200
H3725       H  0.98541702  0.41589370  0.63956117     0.13000
N3726       N  0.94973484  0.42186780  0.64143433    -0.82700
H3727       H  0.96348823  0.52671530  0.61820160     0.17800
N3728       N  0.99891740  0.52074600  0.61665941    -0.81300
H3729       H  0.95654996  0.40029346  0.64568943     0.33500
H3730       H  0.94189182  0.41460575  0.63057767     0.37900
H3731       H  0.99218223  0.54256982  0.61264625     0.33400
H3732       H  0.00687993  0.52750058  0.62752355     0.30100
H3733       H  0.02208244  0.44426245  0.67083393     0.33400
H3734       H  0.00868421  0.47461487  0.66283762     0.30100
H3735       H  0.05692606  0.46885958  0.59345815     0.38000
H3736       H  0.03857612  0.45477014  0.58309127     0.33500
C3737       C  0.87036076  0.47354103  0.70805388    -0.20300
C3738       C  0.88003500  0.44565173  0.71485827     0.35900
C3739       C  0.87975484  0.43897686  0.73326833    -0.26300
C3740       C  0.87001626  0.45942325  0.74495910     0.02400
C3741       C  0.86015940  0.48681228  0.73824010     0.27200
C3742       C  0.86048327  0.49366880  0.71992397    -0.25400
N3743       N  0.89002507  0.42414618  0.70314886    -0.82800
H3744       H  0.88720146  0.41779094  0.73857910     0.13000
C3745       C  0.87011043  0.45180867  0.76425654     0.02300
N3746       N  0.84985527  0.50753819  0.75008283    -0.81300
H3747       H  0.85314561  0.51527476  0.71496269     0.17800
C3748       C  0.87871748  0.47385768  0.77602652    -0.26200
C3749       C  0.87887750  0.46768560  0.79447601     0.35800
C3750       C  0.87020456  0.43872646  0.80124980    -0.20200
C3751       C  0.86156884  0.41680883  0.78930914    -0.25500
C3752       C  0.86141737  0.42308548  0.77092320     0.27200
H3753       H  0.88531958  0.49598205  0.77075151     0.13000
N3754       N  0.88768142  0.49082822  0.80627088    -0.82700
H3755       H  0.85508731  0.39432862  0.79429402     0.17800
N3756       N  0.85245371  0.40045165  0.75896674    -0.81300
H3757       H  0.89355392  0.51049001  0.79911052     0.33500
H3758       H  0.87791617  0.50174111  0.81434876     0.37900
H3759       H  0.84687818  0.38028033  0.76596665     0.33400
H3760       H  0.84182329  0.41362032  0.75318328     0.30100
H3761       H  0.84349532  0.52691059  0.74306303     0.33400
H3762       H  0.83976474  0.49250075  0.75545651     0.30100
H3763       H  0.88091335  0.41211588  0.69474409     0.38000
H3764       H  0.89652947  0.40516496  0.71033505     0.33500
C3765       C  0.88468626  0.09120350  0.55072081    -0.20300
C3766       C  0.87243085  0.11456507  0.54325399     0.35900
C3767       C  0.87230102  0.12014900  0.52469433    -0.26300
C3768       C  0.88404481  0.10291789  0.51333369     0.02400
C3769       C  0.89653618  0.08023916  0.52081055     0.27200
C3770       C  0.89684539  0.07499881  0.53929861    -0.25400
N3771       N  0.86014778  0.13257155  0.55442324    -0.82800
H3772       H  0.86293697  0.13802500  0.51902712     0.13000
C3773       C  0.88294373  0.10774167  0.49360585     0.02300
N3774       N  0.90857283  0.06178882  0.50953806    -0.81300
H3775       H  0.90632596  0.05705395  0.54469932     0.17800
C3776       C  0.89853837  0.11525665  0.48406067    -0.26200
C3777       C  0.89887135  0.11410898  0.46535800     0.35800
C3778       C  0.88314892  0.10604816  0.45588286    -0.20200
C3779       C  0.86714123  0.10186540  0.46533119    -0.25500
C3780       C  0.86690325  0.10215737  0.48410127     0.27200
H3781       H  0.91072058  0.12068261  0.49129487     0.13000
N3782       N  0.91523699  0.12022887  0.45595175    -0.82700
H3783       H  0.85502876  0.09585928  0.45810836     0.17800
N3784       N  0.85063138  0.09512177  0.49349182    -0.81300
H3785       H  0.92561784  0.12539206  0.46485437     0.33500
H3786       H  0.91341574  0.14192459  0.44825103     0.37900
H3787       H  0.84004617  0.09188623  0.48457231     0.33400
H3788       H  0.85229321  0.07216412  0.50013267     0.30100
H3789       H  0.91704410  0.04643038  0.51709308     0.33400
H3790       H  0.90091363  0.04573004  0.50159018     0.30100
H3791       H  0.85177105  0.14799259  0.54679910     0.38000
H3792       H  0.86763081  0.14858604  0.56256200     0.33500
C3793       C  0.88566899  0.87489940  0.63165792    -0.20300
C3794       C  0.88388159  0.85580522  0.61591076     0.35900
C3795       C  0.88265405  0.82071411  0.61684244    -0.26300
C3796       C  0.88313167  0.80395478  0.63322282     0.02400
C3797       C  0.88548158  0.82271669  0.64903831     0.27200
C3798       C  0.88683548  0.85810415  0.64808251    -0.25400
N3799       N  0.88353635  0.87195568  0.59885000    -0.82800
H3800       H  0.88137984  0.80639372  0.60463210     0.13000
C3801       C  0.88184531  0.76665008  0.63330552     0.02300
N3802       N  0.88617617  0.80583293  0.66596092    -0.81300
H3803       H  0.88816052  0.87265406  0.66020535     0.17800
C3804       C  0.89627265  0.74786160  0.63972347    -0.26200
C3805       C  0.89634447  0.71257085  0.63876857     0.35800
C3806       C  0.88125947  0.69538962  0.63176498    -0.20200
C3807       C  0.86687242  0.71440452  0.62514297    -0.25500
C3808       C  0.86704490  0.74985294  0.62578766     0.27200
H3809       H  0.90782908  0.76093181  0.64496541     0.13000
N3810       N  0.91193981  0.69430267  0.64444623    -0.82700
H3811       H  0.85533408  0.70161327  0.61969325     0.17800
N3812       N  0.85224306  0.76892340  0.61888365    -0.81300
H3813       H  0.92159420  0.71062080  0.64958881     0.33500
H3814       H  0.91753152  0.68325631  0.63312509     0.37900
H3815       H  0.84248702  0.75287447  0.61369783     0.33400
H3816       H  0.84639497  0.78170242  0.62954518     0.30100
H3817       H  0.88799372  0.82322038  0.67624741     0.33400
H3818       H  0.87375652  0.79456362  0.66805968     0.30100
H3819       H  0.87158152  0.86553673  0.59251379     0.38000
H3820       H  0.89406744  0.86236228  0.59127616     0.33500
C3821       C  0.87276778  0.19526470  0.62952779    -0.20300
C3822       C  0.87252814  0.21282490  0.64588955     0.35900
C3823       C  0.87288745  0.24815669  0.64586244    -0.26300
C3824       C  0.87329832  0.26615707  0.62985960     0.02400
C3825       C  0.87308025  0.24883979  0.61349948     0.27200
C3826       C  0.87267200  0.21341720  0.61348980    -0.25400
N3827       N  0.87192321  0.19466588  0.66245021    -0.82800
H3828       H  0.87293845  0.26178789  0.65835355     0.13000
C3829       C  0.87414143  0.30324311  0.63053249     0.02300
N3830       N  0.87400339  0.26725119  0.59703607    -0.81300
H3831       H  0.87302309  0.19992289  0.60096670     0.17800
C3832       C  0.89078150  0.31899130  0.63223522    -0.26200
C3833       C  0.89210437  0.35426386  0.63326346     0.35800
C3834       C  0.87641400  0.37395544  0.63218952    -0.20200
C3835       C  0.85976871  0.35795231  0.63060539    -0.25500
C3836       C  0.85845890  0.32272822  0.63002697     0.27200
H3837       H  0.90274194  0.30364054  0.63281888     0.13000
N3838       N  0.90930635  0.37004917  0.63468032    -0.82700
H3839       H  0.84771497  0.37304269  0.62995981     0.17800
N3840       N  0.84129060  0.30662916  0.62936665    -0.81300
H3841       H  0.91947407  0.35204478  0.63391734     0.33500
H3842       H  0.91025425  0.38054734  0.64739670     0.37900
H3843       H  0.83107534  0.32459838  0.62953654     0.33400
H3844       H  0.84023264  0.29402618  0.61721878     0.30100
H3845       H  0.87420461  0.25069438  0.58622719     0.33400
H3846       H  0.86232839  0.28147177  0.59578211     0.30100
H3847       H  0.85976928  0.18179477  0.66288878     0.38000
H3848       H  0.87196025  0.21130408  0.67322784     0.33500
C3849       C  0.05279167  0.94273091  0.62415259    -0.20300
C3850       C  0.04614594  0.96981828  0.63443841     0.35900
C3851       C  0.02774016  0.97687471  0.63425834    -0.26300
C3852       C  0.01587029  0.95765710  0.62399102     0.02400
C3853       C  0.02248976  0.93107519  0.61349146     0.27200
C3854       C  0.04082231  0.92403332  0.61361319    -0.25400
N3855       N  0.05802272  0.99027709  0.64486785    -0.82800
H3856       H  0.02260305  0.99768825  0.64204418     0.13000
C3857       C  0.99653786  0.96580085  0.62417169     0.02300
N3858       N  0.01051474  0.91100244  0.60294440    -0.81300
H3859       H  0.04569039  0.90318142  0.60569106     0.17800
C3860       C  0.98795916  0.97376218  0.60812069    -0.26200
C3861       C  0.96966440  0.98135961  0.60758952     0.35800
C3862       C  0.95971545  0.98163718  0.62360413    -0.20200
C3863       C  0.96834647  0.97315214  0.63965526    -0.25500
C3864       C  0.98664551  0.96531955  0.64010397     0.27200
H3865       H  0.99562878  0.97404601  0.59591050     0.13000
N3866       N  0.96119933  0.98848189  0.59080713    -0.82700
H3867       H  0.96088973  0.97326522  0.65198816     0.17800
N3868       N  0.99524993  0.95702796  0.65666757    -0.81300
H3869       H  0.97049663  0.98808219  0.58045348     0.33500
H3870       H  0.95220609  0.96895731  0.58826851     0.37900
H3871       H  0.98615056  0.95809713  0.66718061     0.33400
H3872       H  0.99960543  0.93204377  0.65584679     0.30100
H3873       H  0.01752486  0.89259029  0.59587342     0.33400
H3874       H  0.00203529  0.89823714  0.61167611     0.30100
H3875       H  0.06642327  0.00302686  0.63605069     0.38000
H3876       H  0.05092565  0.00874016  0.65181358     0.33500
C3877       C  0.87496032  0.94092511  0.79985986    -0.20300
C3878       C  0.86802313  0.91898959  0.78672760     0.35900
C3879       C  0.86923389  0.92782597  0.76865024    -0.26300
C3880       C  0.87782407  0.95742692  0.76320775     0.02400
C3881       C  0.88530125  0.97889086  0.77623107     0.27200
C3882       C  0.88377132  0.97042973  0.79440105    -0.25400
N3883       N  0.86027566  0.88725824  0.79171033    -0.82800
H3884       H  0.86349920  0.91135957  0.75867872     0.13000
C3885       C  0.87844687  0.96571305  0.74383979     0.02300
N3886       N  0.89449813  0.00904156  0.77095528    -0.81300
H3887       H  0.88945870  0.98698145  0.80436120     0.17800
C3888       C  0.87126513  0.99635364  0.73789848    -0.26200
C3889       C  0.87083184  0.00459668  0.71970800     0.35800
C3890       C  0.87743446  0.98134545  0.70701603    -0.20200
C3891       C  0.88478248  0.95078953  0.71296712    -0.25500
C3892       C  0.88539540  0.94276594  0.73123653     0.27200
H3893       H  0.86585886  0.01389166  0.74753058     0.13000
N3894       N  0.86400733  0.03681994  0.71414157    -0.82700
H3895       H  0.88997118  0.93304014  0.70332399     0.17800
N3896       N  0.89312190  0.91146843  0.73706661    -0.81300
H3897       H  0.85944346  0.05066958  0.72505297     0.33500
H3898       H  0.87466188  0.05038096  0.70875456     0.37900
H3899       H  0.89751475  0.89734173  0.72618407     0.33400
H3900       H  0.90443280  0.91720686  0.74463945     0.30100
H3901       H  0.89917587  0.02206128  0.78211383     0.33400
H3902       H  0.90573651  0.00179174  0.76367346     0.30100
H3903       H  0.87044596  0.87249030  0.79724148     0.38000
H3904       H  0.85569630  0.87429483  0.78049263     0.33500
C3905       C  0.38429973  0.83356356  0.54843773    -0.20300
C3906       C  0.37609194  0.86224688  0.54074590     0.35900
C3907       C  0.37588271  0.86598682  0.52207528    -0.26300
C3908       C  0.38370644  0.84174054  0.51095462     0.02400
C3909       C  0.39162654  0.81286826  0.51861710     0.27200
C3910       C  0.39201762  0.80930108  0.53720276    -0.25400
N3911       N  0.36832940  0.88777869  0.55186304    -0.82800
H3912       H  0.36988891  0.88820468  0.51616304     0.13000
C3913       C  0.38402197  0.84681820  0.49130928     0.02300
N3914       N  0.39908392  0.78706448  0.50743704    -0.81300
H3915       H  0.39810603  0.78699460  0.54293338     0.17800
C3916       C  0.40052785  0.84692407  0.48257400    -0.26200
C3917       C  0.40159179  0.84698670  0.46391810     0.35800
C3918       C  0.38570836  0.84686825  0.45364208    -0.20200
C3919       C  0.36921354  0.84970110  0.46243561    -0.25500
C3920       C  0.36819896  0.84937662  0.48117128     0.27200
H3921       H  0.41267469  0.84588491  0.49041372     0.13000
N3922       N  0.41876475  0.84628326  0.45541184    -0.82700
H3923       H  0.35698549  0.84986826  0.45472046     0.17800
N3924       N  0.35114984  0.85004133  0.48989061    -0.81300
H3925       H  0.42903111  0.84596164  0.46485780     0.33500
H3926       H  0.42011220  0.86871703  0.44823883     0.37900
H3927       H  0.34084207  0.85212651  0.48055137     0.33400
H3928       H  0.34945746  0.82686883  0.49629398     0.30100
H3929       H  0.40445920  0.76753342  0.51511896     0.33400
H3930       H  0.38863252  0.77663152  0.50004328     0.30100
H3931       H  0.37865250  0.89873996  0.55922103     0.38000
H3932       H  0.36272214  0.90699064  0.54412341     0.33500
C3933       C  0.30365295  0.84739318  0.63009589    -0.20300
C3934       C  0.29351419  0.86007886  0.64436221     0.35900
C3935       C  0.27480908  0.85768961  0.64372698    -0.26300
C3936       C  0.26614154  0.84196203  0.62935034     0.02400
C3937       C  0.27635589  0.83001245  0.61490010     0.27200
C3938       C  0.29496283  0.83360762  0.61525901    -0.25400
N3939       N  0.30228099  0.87480430  0.65949531    -0.82800
H3940       H  0.26695484  0.86764509  0.65461386     0.13000
C3941       C  0.24638433  0.83853450  0.62952645     0.02300
N3942       N  0.26788282  0.81291315  0.60029791    -0.81300
H3943       H  0.30282595  0.82323140  0.60447681     0.17800
C3944       C  0.23648539  0.85010770  0.61487555    -0.26200
C3945       C  0.21778186  0.84910122  0.61487206     0.35800
C3946       C  0.20874658  0.83719452  0.63012075    -0.20200
C3947       C  0.21859822  0.82495096  0.64463170    -0.25500
C3948       C  0.23734981  0.82461037  0.64428704     0.27200
H3949       H  0.24337321  0.86096410  0.60358280     0.13000
N3950       N  0.20797000  0.86152989  0.59974613    -0.82700
H3951       H  0.21161491  0.81572040  0.65626849     0.17800
N3952       N  0.24725593  0.81016903  0.65882306    -0.81300
H3953       H  0.21664092  0.86828684  0.58946247     0.33500
H3954       H  0.20146766  0.88362493  0.60363177     0.37900
H3955       H  0.23860915  0.80103809  0.66860186     0.33400
H3956       H  0.25419483  0.78932596  0.65387191     0.30100
H3957       H  0.27729219  0.80568307  0.59077806     0.33400
H3958       H  0.26228118  0.79073379  0.60529412     0.30100
H3959       H  0.30890874  0.89640791  0.65508600     0.38000
H3960       H  0.29290933  0.88274314  0.66889491     0.33500
C3961       C  0.38213009  0.34363010  0.54818812    -0.20300
C3962       C  0.36714803  0.33464569  0.53772586     0.35900
C3963       C  0.36782850  0.33861652  0.51909094    -0.26300
C3964       C  0.38297185  0.35200581  0.51075924     0.02400
C3965       C  0.39719404  0.36400039  0.52130858     0.27200
C3966       C  0.39681615  0.35894455  0.53987583    -0.25400
N3967       N  0.35160810  0.32025427  0.54593287    -0.82800
H3968       H  0.35681025  0.32993452  0.51094405     0.13000
C3969       C  0.38458351  0.34950911  0.49107330     0.02300
N3970       N  0.41176082  0.38182570  0.51318397    -0.81300
H3971       H  0.40805908  0.36690248  0.54791951     0.17800
C3972       C  0.37557922  0.37234165  0.47990994    -0.26200
C3973       C  0.37617277  0.36898101  0.46118101     0.35800
C3974       C  0.38599819  0.34219533  0.45353234    -0.20200
C3975       C  0.39513375  0.31975671  0.46487071    -0.25500
C3976       C  0.39430071  0.32276061  0.48345506     0.27200
H3977       H  0.36794886  0.39260743  0.48584858     0.13000
N3978       N  0.36685806  0.39257696  0.44998986    -0.82700
H3979       H  0.40242886  0.29875148  0.45923785     0.17800
N3980       N  0.40242601  0.29754128  0.49463590    -0.81300
H3981       H  0.36017640  0.41050776  0.45768887     0.33500
H3982       H  0.37641177  0.40563191  0.44258217     0.37900
H3983       H  0.40828095  0.27860353  0.48693785     0.33400
H3984       H  0.41279627  0.30878049  0.50175491     0.30100
H3985       H  0.42086006  0.38981794  0.52285789     0.33400
H3986       H  0.41865271  0.36526748  0.50488312     0.30100
H3987       H  0.35527389  0.29685884  0.55121047     0.38000
H3988       H  0.34170713  0.31560461  0.53642471     0.33500
C3989       C  0.37935835  0.45119631  0.62622793    -0.20300
C3990       C  0.39494836  0.46937970  0.63095993     0.35900
C3991       C  0.39435672  0.50464000  0.63168464    -0.26300
C3992       C  0.37875217  0.52224173  0.62742214     0.02400
C3993       C  0.36337432  0.50443897  0.62211905     0.27200
C3994       C  0.36380486  0.46902297  0.62163404    -0.25400
N3995       N  0.41142050  0.45210137  0.63474463    -0.82800
H3996       H  0.40623061  0.51861353  0.63532384     0.13000
C3997       C  0.37903500  0.55945926  0.62804413     0.02300
N3998       N  0.34739151  0.52242588  0.61737327    -0.81300
H3999       H  0.35186030  0.45530056  0.61799107     0.17800
C4000       C  0.37697047  0.57753690  0.61218648    -0.26200
C4001       C  0.37789743  0.61272307  0.61206290     0.35800
C4002       C  0.38073219  0.63038556  0.62814983    -0.20200
C4003       C  0.38308435  0.61220898  0.64401018    -0.25500
C4004       C  0.38216626  0.57682652  0.64412666     0.27200
H4005       H  0.37490991  0.56419821  0.59977169     0.13000
N4006       N  0.37638145  0.63037010  0.59547518    -0.82700
H4007       H  0.38515892  0.62564617  0.65638647     0.17800
N4008       N  0.38418508  0.55842611  0.66049636    -0.81300
H4009       H  0.38643194  0.62167478  0.58700378     0.33500
H4010       H  0.36406528  0.62431632  0.58976122     0.37900
H4011       H  0.38642939  0.57491404  0.67110650     0.33400
H4012       H  0.37207908  0.54631869  0.66306526     0.30100
H4013       H  0.33729136  0.50564027  0.61372542     0.33400
H4014       H  0.34292158  0.53505454  0.62872653     0.30100
H4015       H  0.41554256  0.44034759  0.62300267     0.38000
H4016       H  0.42146496  0.46917664  0.63817000     0.33500
C4017       C  0.38429215  0.95103397  0.62388997    -0.20300
C4018       C  0.40038314  0.96900080  0.62656556     0.35900
C4019       C  0.39999952  0.00431579  0.62712071    -0.26300
C4020       C  0.38396308  0.02197341  0.62495726     0.02400
C4021       C  0.36795296  0.00420639  0.62201948     0.27200
C4022       C  0.36830487  0.96887462  0.62134010    -0.25400
N4023       N  0.41706404  0.95138748  0.62851668    -0.82800
H4024       H  0.41228661  0.01822771  0.62903264     0.13000
C4025       C  0.38425005  0.05918611  0.62499442     0.02300
N4026       N  0.35139060  0.02216510  0.62002182    -0.81300
H4027       H  0.35595279  0.95519008  0.61940854     0.17800
C4028       C  0.37925803  0.07627210  0.60947953    -0.26200
C4029       C  0.37923789  0.11145767  0.60879679     0.35800
C4030       C  0.38413967  0.13022546  0.62404021    -0.20200
C4031       C  0.38962132  0.11295019  0.63946265    -0.25500
C4032       C  0.38966957  0.07756402  0.64011019     0.27200
H4033       H  0.37545393  0.06213067  0.59773788     0.13000
N4034       N  0.37452003  0.12787098  0.59245225    -0.82700
H4035       H  0.39344720  0.12703280  0.65120454     0.17800
N4036       N  0.39492139  0.06022803  0.65609708    -0.81300
H4037       H  0.38327486  0.11959121  0.58255597     0.33500
H4038       H  0.36162616  0.12033493  0.58892707     0.37900
H4039       H  0.39863255  0.07743116  0.66595641     0.33400
H4040       H  0.38373600  0.04742783  0.66089560     0.30100
H4041       H  0.34085100  0.00539363  0.61792804     0.33400
H4042       H  0.34880234  0.03442931  0.63205262     0.30100
H4043       H  0.41964117  0.93904652  0.61650620     0.38000
H4044       H  0.42754743  0.96833160  0.63050564     0.33500
C4045       C  0.20624108  0.34010739  0.62738164    -0.20300
C4046       C  0.21594500  0.35225279  0.61262875     0.35900
C4047       C  0.23466330  0.35128643  0.61305804    -0.26300
C4048       C  0.24386536  0.33780397  0.62771883     0.02400
C4049       C  0.23411511  0.32451509  0.64217426     0.27200
C4050       C  0.21539556  0.32633064  0.64196886    -0.25400
N4051       N  0.20683512  0.36746107  0.59778464    -0.82800
H4052       H  0.24214543  0.36184259  0.60206556     0.13000
C4053       C  0.26368763  0.33850360  0.62787106     0.02300
N4054       N  0.24326366  0.30945538  0.65703098    -0.81300
H4055       H  0.20788105  0.31727284  0.65331110     0.17800
C4056       C  0.27270960  0.35260375  0.64250105    -0.26200
C4057       C  0.29143277  0.35234030  0.64342639     0.35800
C4058       C  0.30123954  0.33908495  0.62910386    -0.20200
C4059       C  0.29230984  0.32658866  0.61410708    -0.25500
C4060       C  0.27362448  0.32523323  0.61354827     0.27200
H4061       H  0.26510255  0.36334319  0.65335313     0.13000
N4062       N  0.30053628  0.36500852  0.65888214    -0.82700
H4063       H  0.29997210  0.31574369  0.60330720     0.17800
N4064       N  0.26473109  0.30913982  0.59887460    -0.81300
H4065       H  0.29136316  0.37356461  0.66832424     0.33500
H4066       H  0.30799622  0.38593672  0.65491514     0.37900
H4067       H  0.27398735  0.30056566  0.58951633     0.33400
H4068       H  0.25827459  0.28779276  0.60385549     0.30100
H4069       H  0.23414741  0.30108425  0.66657061     0.33400
H4070       H  0.24994189  0.28809740  0.65234864     0.30100
H4071       H  0.19999639  0.34834503  0.59110891     0.38000
H4072       H  0.21599477  0.37720791  0.58865736     0.33500
C4073       C  0.38271224  0.58868622  0.95303935    -0.20300
C4074       C  0.36854857  0.59931639  0.96407538     0.35900
C4075       C  0.36998842  0.59515190  0.98258922    -0.26300
C4076       C  0.38515921  0.58030162  0.99020144     0.02400
C4077       C  0.39872576  0.56744348  0.97915492     0.27200
C4078       C  0.39750610  0.57227486  0.96063567    -0.25400
N4079       N  0.35314673  0.61568042  0.95653498    -0.82800
H4080       H  0.35956823  0.60472367  0.99120158     0.13000
C4081       C  0.38728594  0.58143832  0.00975802     0.02300
N4082       N  0.41352775  0.54930742  0.98676039    -0.81300
H4083       H  0.40820857  0.56360732  0.95210414     0.17800
C4084       C  0.37877528  0.55741510  0.02046154    -0.26200
C4085       C  0.37957163  0.55944117  0.03918220     0.35800
C4086       C  0.38896316  0.58630586  0.04725461    -0.20200
C4087       C  0.39759844  0.61004477  0.03634027    -0.25500
C4088       C  0.39678365  0.60801670  0.01773750     0.27200
H4089       H  0.37137317  0.53724401  0.01416262     0.13000
N4090       N  0.37090605  0.53440426  0.04993317    -0.82700
H4091       H  0.40456326  0.63108086  0.04233236     0.17800
N4092       N  0.40485205  0.63375023  0.00691911    -0.81300
H4093       H  0.36445233  0.51666833  0.04191604     0.33500
H4094       H  0.38083502  0.52140141  0.05693528     0.37900
H4095       H  0.41077049  0.65220652  0.01489206     0.33400
H4096       H  0.41517910  0.62272582  0.99964980     0.30100
H4097       H  0.42210417  0.54083379  0.97675752     0.33400
H4098       H  0.42090741  0.56591104  0.99462169     0.30100
H4099       H  0.35732907  0.63859435  0.95109207     0.38000
H4100       H  0.34388507  0.62154393  0.96645080     0.33500
C4101       C  0.29826317  0.59933930  0.87266821    -0.20300
C4102       C  0.29016456  0.57350112  0.88278358     0.35900
C4103       C  0.27144029  0.57059639  0.88275817    -0.26300
C4104       C  0.26076342  0.59304894  0.87296103     0.02400
C4105       C  0.26875748  0.61896170  0.86306323     0.27200
C4106       C  0.28735769  0.62187643  0.86303769    -0.25400
N4107       N  0.30086694  0.55022669  0.89287953    -0.82800
H4108       H  0.26510801  0.55063285  0.89028585     0.13000
C4109       C  0.24122914  0.58831018  0.87233901     0.02300
N4110       N  0.25792112  0.64204813  0.85295340    -0.81300
H4111       H  0.29333530  0.64219467  0.85549600     0.17800
C4112       C  0.22994999  0.61283599  0.87970074    -0.26200
C4113       C  0.21128011  0.60976337  0.87855210     0.35800
C4114       C  0.20385654  0.58139647  0.86994883    -0.20200
C4115       C  0.21530795  0.55718632  0.86241642    -0.25500
C4116       C  0.23388239  0.56040443  0.86348329     0.27200
H4117       H  0.23577782  0.63450919  0.88624973     0.13000
N4118       N  0.19992166  0.63540828  0.88589808    -0.82700
H4119       H  0.20976518  0.53517783  0.85594147     0.17800
N4120       N  0.24534794  0.53550475  0.85557752    -0.81300
H4121       H  0.20752909  0.65438705  0.89184501     0.33500
H4122       H  0.19302233  0.64665567  0.87533318     0.37900
H4123       H  0.23782170  0.51632978  0.84970604     0.33400
H4124       H  0.25239003  0.54721226  0.84529320     0.30100
H4125       H  0.26586816  0.65995378  0.84654878     0.33400
H4126       H  0.25154458  0.62828165  0.84294172     0.30100
H4127       H  0.30835897  0.53605567  0.88385450     0.38000
H4128       H  0.29278533  0.53320804  0.89977301     0.33500
C4129       C  0.37030680  0.70572037  0.79945248    -0.20300
C4130       C  0.37982650  0.73354678  0.79257034     0.35900
C4131       C  0.37975807  0.73952985  0.77410768    -0.26300
C4132       C  0.37032427  0.71847170  0.76244264     0.02400
C4133       C  0.36054196  0.69115513  0.76926404     0.27200
C4134       C  0.36067283  0.68500000  0.78765179    -0.25400
N4135       N  0.38941947  0.75570521  0.80427815    -0.82800
H4136       H  0.38714121  0.76065990  0.76873371     0.13000
C4137       C  0.37064129  0.72551307  0.74308583     0.02300
N4138       N  0.35051721  0.66981687  0.75746815    -0.81300
H4139       H  0.35342282  0.66345739  0.79273604     0.17800
C4140       C  0.37845589  0.70209673  0.73148755    -0.26200
C4141       C  0.37897863  0.70796919  0.71302252     0.35800
C4142       C  0.37153646  0.73797645  0.70607600    -0.20200
C4143       C  0.36363598  0.76124729  0.71780275    -0.25500
C4144       C  0.36310598  0.75530297  0.73620759     0.27200
H4145       H  0.38419070  0.67918946  0.73690813     0.13000
N4146       N  0.38686683  0.68347755  0.70135335    -0.82700
H4147       H  0.35805067  0.78447835  0.71262276     0.17800
N4148       N  0.35493836  0.77933971  0.74796837    -0.81300
H4149       H  0.39183290  0.66301038  0.70861425     0.33500
H4150       H  0.37673533  0.67408063  0.69316891     0.37900
H4151       H  0.35014980  0.80009772  0.74082114     0.33400
H4152       H  0.34383226  0.76777594  0.75373229     0.30100
H4153       H  0.34414734  0.65066283  0.76458693     0.33400
H4154       H  0.34043902  0.68449967  0.75171650     0.30100
H4155       H  0.38006069  0.76768511  0.81241443     0.38000
H4156       H  0.39581291  0.77467570  0.79704418     0.33500
C4157       C  0.38253568  0.09632816  0.95453509    -0.20300
C4158       C  0.39373442  0.11297442  0.96696082     0.35900
C4159       C  0.39301689  0.10449322  0.98505566    -0.26300
C4160       C  0.38122713  0.07996239  0.99143893     0.02400
C4161       C  0.36972535  0.06365215  0.97930819     0.27200
C4162       C  0.37055280  0.07185646  0.96101396    -0.25400
N4163       N  0.40561620  0.13923785  0.96148280    -0.82800
H4164       H  0.40155078  0.11786252  0.99432217     0.13000
C4165       C  0.38077846  0.07348820  0.01101733     0.02300
N4166       N  0.35727272  0.03887510  0.98558745    -0.81300
H4167       H  0.36178032  0.05898397  0.95179740     0.17800
C4168       C  0.36504618  0.07960454  0.02061124    -0.26200
C4169       C  0.36512889  0.08081805  0.03937930     0.35800
C4170       C  0.38134354  0.07577765  0.04873836    -0.20200
C4171       C  0.39676787  0.06739090  0.03910940    -0.25500
C4172       C  0.39659026  0.06571091  0.02041735     0.27200
H4173       H  0.35290483  0.08561605  0.01341759     0.13000
N4174       N  0.34904929  0.08915689  0.04881624    -0.82700
H4175       H  0.40917021  0.06306834  0.04620418     0.17800
N4176       N  0.41255163  0.05710035  0.01085593    -0.81300
H4177       H  0.33829398  0.09138951  0.04000283     0.33500
H4178       H  0.35082960  0.11291118  0.05454347     0.37900
H4179       H  0.42306305  0.05230731  0.01968059     0.33400
H4180       H  0.41009362  0.03456753  0.00409507     0.30100
H4181       H  0.34960268  0.02956316  0.97505102     0.33400
H4182       H  0.36464412  0.01857207  0.99059091     0.30100
H4183       H  0.41859883  0.13227001  0.96506547     0.38000
H4184       H  0.40231851  0.16114092  0.96847224     0.33500
C4185       C  0.37791651  0.98677552  0.87651629    -0.20300
C4186       C  0.38074973  0.96800963  0.89224104     0.35900
C4187       C  0.38163798  0.93259885  0.89128082    -0.26300
C4188       C  0.37971360  0.91583597  0.87495844     0.02400
C4189       C  0.37687204  0.93457351  0.85928376     0.27200
C4190       C  0.37606692  0.96987829  0.86020895    -0.25400
N4191       N  0.38355331  0.98495266  0.90891502    -0.82800
H4192       H  0.38383426  0.91796308  0.90327147     0.13000
C4193       C  0.38005602  0.87852359  0.87448088     0.02300
N4194       N  0.37474924  0.91760190  0.84252450    -0.81300
H4195       H  0.37403816  0.98436461  0.84813076     0.17800
C4196       C  0.36388103  0.86106171  0.87523977    -0.26200
C4197       C  0.36345852  0.82567563  0.87489163     0.35800
C4198       C  0.37961630  0.80728049  0.87376532    -0.20200
C4199       C  0.39583035  0.82493230  0.87255270    -0.25500
C4200       C  0.39620010  0.86046907  0.87302047     0.27200
H4201       H  0.35152611  0.87518794  0.87613795     0.13000
N4202       N  0.34664434  0.80833017  0.87554556    -0.82700
H4203       H  0.40823749  0.81096447  0.87174238     0.17800
N4204       N  0.41286441  0.87830677  0.87236321    -0.81300
H4205       H  0.33608025  0.82546383  0.87652785     0.33500
H4206       H  0.34501404  0.79570851  0.86344706     0.37900
H4207       H  0.42352731  0.86137190  0.87150645     0.33400
H4208       H  0.41299796  0.89253248  0.86064756     0.30100
H4209       H  0.37251059  0.93500959  0.83230145     0.33400
H4210       H  0.38680664  0.90555437  0.83961315     0.30100
H4211       H  0.37151171  0.99633193  0.91252987     0.38000
H4212       H  0.38652601  0.96754918  0.91895197     0.33500
C4213       C  0.37444260  0.30683860  0.87016984    -0.20300
C4214       C  0.35792161  0.32383974  0.86857322     0.35900
C4215       C  0.35759341  0.35920488  0.86858594    -0.26300
C4216       C  0.37337455  0.37770615  0.87032328     0.02400
C4217       C  0.38989625  0.36086525  0.87166319     0.27200
C4218       C  0.39027809  0.32548444  0.87140533    -0.25400
N4219       N  0.34157242  0.30513522  0.86703363    -0.82800
H4220       H  0.34498251  0.37246451  0.86750026     0.13000
C4221       C  0.37230622  0.41476806  0.87135286     0.02300
N4222       N  0.40610323  0.37973296  0.87391683    -0.81300
H4223       H  0.40290333  0.31238684  0.87282721     0.17800
C4224       C  0.36951887  0.43006483  0.88792136    -0.26200
C4225       C  0.36879598  0.46536551  0.88954978     0.35800
C4226       C  0.37134674  0.48557391  0.87424852    -0.20200
C4227       C  0.37354606  0.46989522  0.85760159    -0.25500
C4228       C  0.37387138  0.43471629  0.85597546     0.27200
H4229       H  0.36800941  0.41432854  0.89961791     0.13000
N4230       N  0.36621094  0.48053269  0.90671663    -0.82700
H4231       H  0.37511749  0.48523003  0.84576641     0.17800
N4232       N  0.37554089  0.41917188  0.83877777    -0.81300
H4233       H  0.36569729  0.46205147  0.91663212     0.33500
H4234       H  0.35365347  0.49203548  0.90662248     0.37900
H4235       H  0.37615314  0.43747620  0.82877815     0.33400
H4236       H  0.38768326  0.40622707  0.83845238     0.30100
H4237       H  0.41702763  0.36348362  0.87521383     0.33400
H4238       H  0.40821088  0.39366163  0.86230707     0.30100
H4239       H  0.34205481  0.29168277  0.85508990     0.38000
H4240       H  0.33063864  0.32144733  0.86609097     0.33500
C4241       C  0.20614167  0.07924554  0.87199189    -0.20300
C4242       C  0.21515048  0.10257497  0.88300204     0.35900
C4243       C  0.23398601  0.10346616  0.88289890    -0.26300
C4244       C  0.24391957  0.08141386  0.87215789     0.02400
C4245       C  0.23501914  0.05824406  0.86119689     0.27200
C4246       C  0.21632970  0.05729832  0.86127354    -0.25400
N4247       N  0.20525643  0.12532561  0.89411170    -0.82800
H4248       H  0.24098696  0.12160232  0.89109692     0.13000
C4249       C  0.26360360  0.08454069  0.87134084     0.02300
N4250       N  0.24502658  0.03582033  0.84996764    -0.81300
H4251       H  0.20972243  0.03881609  0.85297795     0.17800
C4252       C  0.27459245  0.06168675  0.88055094    -0.26200
C4253       C  0.29337625  0.06433427  0.87982929     0.35800
C4254       C  0.30120945  0.09037129  0.86962757    -0.20200
C4255       C  0.28997960  0.11238275  0.86000352    -0.25500
C4256       C  0.27135895  0.10975039  0.86077509     0.27200
H4257       H  0.26847197  0.04189652  0.88837160     0.13000
N4258       N  0.30441556  0.04075553  0.88934670    -0.82700
H4259       H  0.29570177  0.13257307  0.85217561     0.17800
N4260       N  0.26022777  0.13291503  0.85104429    -0.81300
H4261       H  0.29655412  0.02338492  0.89624935     0.33500
H4262       H  0.31166714  0.02703298  0.87993935     0.37900
H4263       H  0.26799970  0.15041184  0.84413012     0.33400
H4264       H  0.25326348  0.11911795  0.84144379     0.30100
H4265       H  0.23646962  0.01991533  0.84288860     0.33400
H4266       H  0.25166216  0.05049005  0.84050758     0.30100
H4267       H  0.19798073  0.14137223  0.88575974     0.38000
H4268       H  0.21391279  0.14058973  0.90145736     0.33500
C4269       C  0.37348207  0.20155089  0.79734597    -0.20300
C4270       C  0.35880039  0.21680604  0.78875287     0.35900
C4271       C  0.35923675  0.22181418  0.77017206    -0.26300
C4272       C  0.37374574  0.21063860  0.75984148     0.02400
C4273       C  0.38836146  0.19503166  0.76855878     0.27200
C4274       C  0.38825011  0.19151655  0.78720978    -0.25400
N4275       N  0.34352876  0.22714416  0.79893411    -0.82800
H4276       H  0.34815853  0.23445488  0.76371045     0.13000
C4277       C  0.37361818  0.21594989  0.74004409     0.02300
N4278       N  0.40301805  0.18178991  0.75840658    -0.81300
H4279       H  0.39939090  0.17927688  0.79380600     0.17800
C4280       C  0.38859251  0.23033556  0.73178541    -0.26200
C4281       C  0.38900233  0.23642245  0.71334137     0.35800
C4282       C  0.37387813  0.22890262  0.70279745    -0.20200
C4283       C  0.35883359  0.21467530  0.71097395    -0.25500
C4284       C  0.35869751  0.20736830  0.72937498     0.27200
H4285       H  0.39995143  0.23758019  0.73984475     0.13000
N4286       N  0.40456081  0.25127966  0.70539198    -0.82700
H4287       H  0.34724224  0.20881704  0.70291499     0.17800
N4288       N  0.34354834  0.19092111  0.73721059    -0.81300
H4289       H  0.41463130  0.25465027  0.71487225     0.33500
H4290       H  0.40101821  0.27529488  0.70086242     0.37900
H4291       H  0.33374692  0.18628170  0.72760264     0.33400
H4292       H  0.34781789  0.16741339  0.74186983     0.30100
H4293       H  0.41262871  0.17105633  0.76678942     0.33400
H4294       H  0.39805194  0.16229488  0.75048006     0.30100
H4295       H  0.34766665  0.24611304  0.80765031     0.38000
H4296       H  0.33382248  0.23781131  0.79063888     0.33500
C4297       C  0.62481294  0.60053566  0.55018816    -0.20300
C4298       C  0.63156570  0.56964939  0.54364444     0.35900
C4299       C  0.63213796  0.56404851  0.52511864    -0.26300
C4300       C  0.62595433  0.58855298  0.51312088     0.02400
C4301       C  0.61934729  0.61940651  0.51963943     0.27200
C4302       C  0.61868438  0.62494432  0.53806632    -0.25400
N4303       N  0.63747592  0.54391563  0.55578813    -0.82800
H4304       H  0.63718253  0.54037907  0.52000153     0.13000
C4305       C  0.62620129  0.58206047  0.49367378     0.02300
N4306       N  0.61348341  0.64511827  0.50744570    -0.81300
H4307       H  0.61368584  0.64881044  0.54298447     0.17800
C4308       C  0.60994063  0.57850122  0.48464554    -0.26200
C4309       C  0.60923334  0.57795591  0.46595153     0.35800
C4310       C  0.62517381  0.58150485  0.45603824    -0.20200
C4311       C  0.64157983  0.58234144  0.46518412    -0.25500
C4312       C  0.64223257  0.58293620  0.48392487     0.27200
H4313       H  0.59768347  0.57740365  0.49225356     0.13000
N4314       N  0.59233432  0.57480460  0.45701265    -0.82700
H4315       H  0.65386183  0.58497168  0.45773552     0.17800
N4316       N  0.65901796  0.58603724  0.49306877    -0.81300
H4317       H  0.58194758  0.57275226  0.46621884     0.33500
H4318       H  0.59257273  0.55222972  0.44986312     0.37900
H4319       H  0.66956036  0.58634632  0.48397846     0.33400
H4320       H  0.65912826  0.60939271  0.49948803     0.30100
H4321       H  0.60896834  0.66632044  0.51435573     0.33400
H4322       H  0.62458247  0.65283365  0.50008961     0.30100
H4323       H  0.62638599  0.53603446  0.56310899     0.38000
H4324       H  0.64206313  0.52282981  0.54882865     0.33500
C4325       C  0.70526204  0.59272526  0.63317794    -0.20300
C4326       C  0.71479453  0.58142505  0.64823363     0.35900
C4327       C  0.73353871  0.58060377  0.64774847    -0.26300
C4328       C  0.74295030  0.59198286  0.63273840     0.02400
C4329       C  0.73333673  0.60298317  0.61760230     0.27200
C4330       C  0.71459668  0.60255219  0.61786842    -0.25400
N4331       N  0.70538598  0.57127933  0.66400322    -0.82800
H4332       H  0.74086433  0.57141754  0.65921921     0.13000
C4333       C  0.76282735  0.59186749  0.63300406     0.02300
N4334       N  0.74262076  0.61568589  0.60227205    -0.81300
H4335       H  0.70723973  0.61194801  0.60645387     0.17800
C4336       C  0.77209905  0.57613918  0.61908863    -0.26200
C4337       C  0.79079206  0.57422855  0.61913002     0.35800
C4338       C  0.80043390  0.58756441  0.63364813    -0.20200
C4339       C  0.79127418  0.60352748  0.64752204    -0.25500
C4340       C  0.77256710  0.60656682  0.64714131     0.27200
H4341       H  0.76468776  0.56444894  0.60835889     0.13000
N4342       N  0.79996826  0.55755904  0.60482880    -0.82700
H4343       H  0.79876005  0.61366185  0.65864362     0.17800
N4344       N  0.76342971  0.62455522  0.66100026    -0.97300
H4345       H  0.79096884  0.55016622  0.59492923     0.33500
H4346       H  0.80553421  0.53542328  0.60996186     0.37900
H4347       H  0.77252257  0.63382076  0.67035661     0.33400
H4348       H  0.75729545  0.64552795  0.65516801     0.30100
H4349       H  0.73360174  0.62282457  0.59231771     0.33400
H4350       H  0.74936549  0.63752948  0.60614157     0.30100
H4351       H  0.69778503  0.55007747  0.66077569     0.38000
H4352       H  0.71434972  0.56382688  0.67394290     0.33500
C4353       C  0.55139543  0.70722871  0.62565886    -0.20300
C4354       C  0.54076504  0.70879263  0.61005662     0.35900
C4355       C  0.52249961  0.71596238  0.61154425    -0.26300
C4356       C  0.51468438  0.72180956  0.62816742     0.02400
C4357       C  0.52520408  0.72088178  0.64366799     0.27200
C4358       C  0.54346525  0.71362427  0.64227370    -0.25400
N4359       N  0.54847197  0.70322041  0.59278682    -0.82800
H4360       H  0.51424943  0.71695811  0.59968683     0.13000
C4361       C  0.49544050  0.72942889  0.62902239     0.02300
N4362       N  0.51725899  0.72726876  0.66073306    -0.81300
H4363       H  0.55144551  0.71234336  0.65429265     0.17800
C4364       C  0.48386724  0.70673355  0.63743540    -0.26200
C4365       C  0.46534443  0.71241969  0.63757574     0.35800
C4366       C  0.45841439  0.74135123  0.62902585    -0.20200
C4367       C  0.47018522  0.76442889  0.62107666    -0.25500
C4368       C  0.48862719  0.75886270  0.62109501     0.27200
H4369       H  0.48930112  0.68419266  0.64355180     0.13000
N4370       N  0.45361357  0.68860400  0.64595209    -0.82700
H4371       H  0.46496537  0.78703866  0.61484432     0.17800
N4372       N  0.50050754  0.78289589  0.61308497    -0.81300
H4373       H  0.46091406  0.66894777  0.65173213     0.33500
H4374       H  0.44571641  0.67781255  0.63599634     0.37900
H4375       H  0.49334367  0.80316940  0.60775067     0.33400
H4376       H  0.50856527  0.79272449  0.62319478     0.30100
H4377       H  0.52680849  0.72535332  0.67085021     0.33400
H4378       H  0.51276265  0.75221845  0.66074719     0.30100
H4379       H  0.53874221  0.70483101  0.58282488     0.38000
H4380       H  0.55751157  0.72273771  0.59039980     0.33500
C4381       C  0.62440316  0.08801743  0.45300917    -0.20300
C4382       C  0.60816964  0.08671392  0.46264373     0.35900
C4383       C  0.60852061  0.08547755  0.48136661    -0.26300
C4384       C  0.62466516  0.08554819  0.49087583     0.02400
C4385       C  0.64085788  0.08382131  0.48128402     0.27200
C4386       C  0.64054748  0.08490663  0.46247670    -0.25400
N4387       N  0.59133542  0.08739476  0.45342132    -0.82800
H4388       H  0.59606406  0.08558248  0.48866677     0.13000
C4389       C  0.62424082  0.09013576  0.51068898     0.02300
N4390       N  0.65758814  0.08236873  0.49064150    -0.81300
H4391       H  0.65304174  0.08541798  0.45525885     0.17800
C4392       C  0.63286485  0.06708674  0.52206188    -0.26200
C4393       C  0.63272090  0.07131460  0.54075379     0.35800
C4394       C  0.62355349  0.09905528  0.54831213    -0.20200
C4395       C  0.61474038  0.12170878  0.53686480    -0.25500
C4396       C  0.61522889  0.11792556  0.51826774     0.27200
H4397       H  0.63966863  0.04560331  0.51632675     0.13000
N4398       N  0.64173580  0.04740576  0.55201005    -0.82700
H4399       H  0.60788527  0.14331226  0.54242183     0.17800
N4400       N  0.60693430  0.14276174  0.50699525    -0.81300
H4401       H  0.64799341  0.02883329  0.54437967     0.33500
H4402       H  0.63204989  0.03519478  0.55964457     0.37900
H4403       H  0.60080274  0.16152843  0.51459547     0.33400
H4404       H  0.61703520  0.15455644  0.49971957     0.30100
H4405       H  0.66821466  0.08088611  0.48168152     0.33400
H4406       H  0.65909340  0.10500227  0.49757825     0.30100
H4407       H  0.59051537  0.06545672  0.44578003     0.38000
H4408       H  0.58072142  0.08660990  0.46242270     0.33500
C4409       C  0.62821722  0.80980323  0.62969938    -0.20300
C4410       C  0.62425840  0.82998147  0.64467168     0.35900
C4411       C  0.62478902  0.86525420  0.64299405    -0.26300
C4412       C  0.62894663  0.88059026  0.62669420     0.02400
C4413       C  0.63269429  0.86064153  0.61173601     0.27200
C4414       C  0.63242002  0.82551542  0.61341357    -0.25400
N4415       N  0.62032507  0.81483601  0.66159849    -0.82800
H4416       H  0.62194414  0.88095755  0.65443406     0.13000
C4417       C  0.62899115  0.91767520  0.62536808     0.02300
N4418       N  0.63660254  0.87619221  0.59488876    -0.81300
H4419       H  0.63531379  0.81028206  0.60181193     0.17800
C4420       C  0.64491742  0.93450042  0.62131184    -0.26200
C4421       C  0.64547440  0.96982138  0.62025486     0.35800
C4422       C  0.62978706  0.98846731  0.62372850    -0.20200
C4423       C  0.61377885  0.97134335  0.62732117    -0.25500
C4424       C  0.61319570  0.93613066  0.62801208     0.27200
H4425       H  0.65696717  0.91996160  0.61913315     0.13000
N4426       N  0.66200604  0.98664689  0.61641826    -0.82700
H4427       H  0.60164113  0.98554278  0.62965100     0.17800
N4428       N  0.59666550  0.91896049  0.63141899    -0.81300
H4429       H  0.67246196  0.96925344  0.61558063     0.33500
H4430       H  0.66082042  0.99734861  0.60375144     0.37900
H4431       H  0.58627788  0.93625661  0.63315591     0.33400
H4432       H  0.59351474  0.90490922  0.62008079     0.30100
H4433       H  0.63913886  0.85792398  0.58520285     0.33400
H4434       H  0.62517162  0.88920652  0.59076889     0.30100
H4435       H  0.60773662  0.80370118  0.66059383     0.38000
H4436       H  0.61919997  0.83329563  0.67145053     0.33500
C4437       C  0.62510948  0.48847317  0.62445111    -0.20300
C4438       C  0.64027503  0.46898308  0.61995779     0.35900
C4439       C  0.63916781  0.43367552  0.62049977    -0.26300
C4440       C  0.62320130  0.41729257  0.62493103     0.02400
C4441       C  0.60792915  0.43657174  0.62888403     0.27200
C4442       C  0.60906978  0.47186493  0.62870522    -0.25400
N4443       N  0.65690795  0.48483443  0.61547298    -0.82800
H4444       H  0.65092133  0.41873898  0.61759823     0.13000
C4445       C  0.62287928  0.37991730  0.62556261     0.02300
N4446       N  0.59134508  0.42024163  0.63308264    -0.81300
H4447       H  0.59729351  0.48649854  0.63191511     0.17800
C4448       C  0.61748559  0.36341488  0.64120242    -0.26200
C4449       C  0.61807211  0.32807231  0.64260517     0.35800
C4450       C  0.62440703  0.30892217  0.62806918    -0.20200
C4451       C  0.62947529  0.32563865  0.61235101    -0.25500
C4452       C  0.62859959  0.36075462  0.61087712     0.27200
H4453       H  0.61319772  0.37824757  0.65251168     0.13000
N4454       N  0.61260814  0.31181617  0.65880412    -0.82700
H4455       H  0.63396008  0.31120816  0.60097364     0.17800
N4456       N  0.63342474  0.37706740  0.59447770    -0.81300
H4457       H  0.60799451  0.32952662  0.66800637     0.33500
H4458       H  0.62392701  0.30064785  0.66444741     0.37900
H4459       H  0.63744291  0.35937347  0.58499286     0.33400
H4460       H  0.62196916  0.38874759  0.58942111     0.30100
H4461       H  0.58143712  0.43803168  0.63587325     0.33400
H4462       H  0.58717162  0.40719372  0.62173935     0.30100
H4463       H  0.65531959  0.49580302  0.60291403     0.38000
H4464       H  0.66701679  0.46684955  0.61406807     0.33500
C4465       C  0.80114986  0.07678156  0.63257606    -0.20300
C4466       C  0.79251128  0.10430619  0.62427033     0.35900
C4467       C  0.77371914  0.10566604  0.62408511    -0.26300
C4468       C  0.76350445  0.08001268  0.63187480     0.02400
C4469       C  0.77202456  0.05222399  0.63979259     0.27200
C4470       C  0.79072092  0.05097828  0.64015519    -0.25400
N4471       N  0.80275765  0.13088690  0.61629810    -0.82800
H4472       H  0.76697151  0.12695290  0.61801473     0.13000
C4473       C  0.74386759  0.08322493  0.63231354     0.02300
N4474       N  0.76164446  0.02514831  0.64715858    -0.81300
H4475       H  0.79718510  0.02933926  0.64618143     0.17800
C4476       C  0.73358381  0.06972914  0.61848054    -0.26200
C4477       C  0.71487983  0.07348367  0.61822580     0.35800
C4478       C  0.70636100  0.09171081  0.63205350    -0.20200
C4479       C  0.71689027  0.10382476  0.64626991    -0.25500
C4480       C  0.73547035  0.09980882  0.64651510     0.27200
H4481       H  0.74022799  0.05643169  0.60778504     0.13000
N4482       N  0.70469458  0.05917472  0.60389775    -0.82700
H4483       H  0.71072894  0.11740475  0.65713764     0.17800
N4484       N  0.74593224  0.11342703  0.66087302    -0.81300
H4485       H  0.71308583  0.04766427  0.59460658     0.33500
H4486       H  0.69681725  0.04000856  0.60929399     0.37900
H4487       H  0.73775234  0.12562238  0.67010764     0.33400
H4488       H  0.75188935  0.09328573  0.66761520     0.30100
H4489       H  0.76997543  0.00618056  0.65213757     0.33400
H4490       H  0.75453941  0.03460072  0.65801485     0.30100
H4491       H  0.80976629  0.14300331  0.62648458     0.38000
H4492       H  0.79433961  0.14895409  0.61058091     0.33500
C4493       C  0.55009095  0.19957893  0.62611239    -0.20300
C4494       C  0.54408181  0.23192701  0.63112583     0.35900
C4495       C  0.52566820  0.23871059  0.63115257    -0.26300
C4496       C  0.51335729  0.21392612  0.62605587     0.02400
C4497       C  0.51934801  0.18159772  0.62126722     0.27200
C4498       C  0.53766902  0.17476329  0.62131436    -0.25400
N4499       N  0.55664785  0.25789288  0.63565498    -0.82800
H4500       H  0.52088605  0.26356569  0.63474638     0.13000
C4501       C  0.49418239  0.22219699  0.62541443     0.02300
N4502       N  0.50676072  0.15591125  0.61636495    -0.81300
H4503       H  0.54229632  0.14982560  0.61767320     0.17800
C4504       C  0.48531342  0.22167531  0.60897238    -0.26200
C4505       C  0.46701806  0.22885113  0.60782532     0.35800
C4506       C  0.45764288  0.23777410  0.62339030    -0.20200
C4507       C  0.46648281  0.23751061  0.63989421    -0.25500
C4508       C  0.48467645  0.22949653  0.64107030     0.27200
H4509       H  0.49269596  0.21533560  0.59704599     0.13000
N4510       N  0.45785726  0.22639857  0.59104248    -0.82700
H4511       H  0.45921344  0.24391461  0.65187877     0.17800
N4512       N  0.49353370  0.22846382  0.65805343    -0.81300
H4513       H  0.46669448  0.21935202  0.58095694     0.33500
H4514       H  0.44852549  0.20694533  0.59213309     0.37900
H4515       H  0.48463396  0.23453653  0.66826023     0.33400
H4516       H  0.49758720  0.20359262  0.66029372     0.30100
H4517       H  0.51336773  0.13355183  0.61308444     0.33400
H4518       H  0.49896665  0.15066748  0.62755246     0.30100
H4519       H  0.54999074  0.28010804  0.63910762     0.38000
H4520       H  0.56406237  0.26331211  0.62423315     0.33500
C4521       C  0.62087294  0.83949840  0.95882904    -0.20300
C4522       C  0.61514119  0.81475425  0.97112701     0.35900
C4523       C  0.61577502  0.82163757  0.98942604    -0.26300
C4524       C  0.62215718  0.85246109  0.99591321     0.02400
C4525       C  0.62817668  0.87704935  0.98376064     0.27200
C4526       C  0.62754615  0.87026261  0.96533408    -0.25400
N4527       N  0.60912997  0.78232344  0.96507394    -0.82800
H4528       H  0.61153594  0.80249290  0.99879893     0.13000
C4529       C  0.62265181  0.85750708  0.01555821     0.02300
N4530       N  0.63472856  0.90882129  0.99015100    -0.81300
H4531       H  0.63204928  0.88925039  0.95600411     0.17800
C4532       C  0.63903287  0.86223371  0.02429747    -0.26200
C4533       C  0.64034525  0.86031137  0.04303229     0.35800
C4534       C  0.62489361  0.85304707  0.05321369    -0.20200
C4535       C  0.60833138  0.85127900  0.04435650    -0.25500
C4536       C  0.60706058  0.85337871  0.02575715     0.27200
H4537       H  0.65098630  0.86570000  0.01642274     0.13000
N4538       N  0.65742095  0.86400874  0.05151697    -0.82700
H4539       H  0.59627662  0.84678657  0.05192119     0.17800
N4540       N  0.59003640  0.84997306  0.01707876    -0.81300
H4541       H  0.66746964  0.86728630  0.04204035     0.33500
H4542       H  0.65698132  0.88632525  0.05887140     0.37900
H4543       H  0.57987589  0.84658934  0.02642351     0.33400
H4544       H  0.58734074  0.87266134  0.01051581     0.30100
H4545       H  0.63870337  0.92406298  0.97951840     0.33400
H4546       H  0.62411056  0.92122490  0.99634578     0.30100
H4547       H  0.62001682  0.77017554  0.95920295     0.38000
H4548       H  0.60519189  0.76727304  0.97579539     0.33500
C4549       C  0.70095295  0.85625584  0.87522581    -0.20300
C4550       C  0.71060327  0.86714910  0.86017419     0.35900
C4551       C  0.72941353  0.86681976  0.86059614    -0.26300
C4552       C  0.73883443  0.85440031  0.87546539     0.02400
C4553       C  0.72905353  0.84372162  0.89055249     0.27200
C4554       C  0.71031155  0.84559941  0.89040536    -0.25400
N4555       N  0.70125255  0.87787478  0.84442219    -0.82800
H4556       H  0.73675390  0.87583650  0.84914604     0.13000
C4557       C  0.75884251  0.85257571  0.87515541     0.02300
N4558       N  0.73813061  0.82963634  0.90571944    -0.81300
H4559       H  0.70292047  0.83635105  0.90178721     0.17800
C4560       C  0.76860935  0.86531172  0.88965137    -0.26200
C4561       C  0.78735202  0.86332444  0.89028570     0.35800
C4562       C  0.79675555  0.84956322  0.87573922    -0.20200
C4563       C  0.78710653  0.83740076  0.86105335    -0.25500
C4564       C  0.76827969  0.83813255  0.86072918     0.27200
H4565       H  0.76156109  0.87722406  0.90053246     0.13000
N4566       N  0.79688895  0.87686428  0.90527166    -0.82700
H4567       H  0.79433101  0.82727560  0.84977892     0.17800
N4568       N  0.75876540  0.82425981  0.84581215    -0.81300
H4569       H  0.78805860  0.88786286  0.91432848     0.33500
H4570       H  0.80284468  0.85665503  0.91195663     0.37900
H4571       H  0.76765352  0.81489009  0.83631337     0.33400
H4572       H  0.75139234  0.80371034  0.85043432     0.30100
H4573       H  0.72904348  0.82303464  0.91566525     0.33400
H4574       H  0.74428808  0.80731302  0.90161446     0.30100
H4575       H  0.69401792  0.89955347  0.84765581     0.38000
H4576       H  0.71025815  0.88470513  0.83444664     0.33500
C4577       C  0.54801580  0.73782138  0.88050391    -0.20300
C4578       C  0.53944097  0.72408500  0.89555959     0.35900
C4579       C  0.52124613  0.71621241  0.89457648    -0.26300
C4580       C  0.51164168  0.72060269  0.87870304     0.02400
C4581       C  0.52031945  0.73331003  0.86348897     0.27200
C4582       C  0.53840788  0.74212049  0.86459893    -0.25400
N4583       N  0.54929595  0.71760312  0.91165091    -0.82800
H4584       H  0.51450751  0.70639281  0.90622366     0.13000
C4585       C  0.49249901  0.71164921  0.87830685     0.02300
N4586       N  0.51076624  0.73691134  0.84697901    -0.81300
H4587       H  0.54501095  0.75259788  0.85303454     0.17800
C4588       C  0.47988737  0.73610941  0.87335994    -0.26200
C4589       C  0.46156833  0.72883438  0.87344283     0.35800
C4590       C  0.45583296  0.69659109  0.87890643    -0.20200
C4591       C  0.46847878  0.67217225  0.88384117    -0.25500
C4592       C  0.48677907  0.67918252  0.88329792     0.27200
H4593       H  0.48436421  0.76109891  0.86966869     0.13000
N4594       N  0.44880896  0.75417085  0.86831395    -0.82700
H4595       H  0.46406600  0.64725138  0.88774997     0.17800
N4596       N  0.49960586  0.65341539  0.88758932    -0.81300
H4597       H  0.45527415  0.77634029  0.86448493     0.33500
H4598       H  0.44120355  0.76008177  0.87953735     0.37900
H4599       H  0.49319379  0.63093977  0.89098224     0.33400
H4600       H  0.50698645  0.64849432  0.87608535     0.30100
H4601       H  0.51908124  0.74674351  0.83710415     0.33400
H4602       H  0.50707376  0.71279738  0.84278660     0.30100
H4603       H  0.55883312  0.69914261  0.90877916     0.38000
H4604       H  0.54097936  0.70743490  0.92143064     0.33500
C4605       C  0.63062017  0.75240177  0.79867188    -0.20300
C4606       C  0.64051719  0.77196382  0.78627510     0.35900
C4607       C  0.64009657  0.76358323  0.76810245    -0.26300
C4608       C  0.63048053  0.73574163  0.76195683     0.02400
C4609       C  0.62055280  0.71630709  0.77412938     0.27200
C4610       C  0.62065991  0.72488251  0.79229953    -0.25400
N4611       N  0.65096114  0.80032836  0.79200644    -0.82800
H4612       H  0.64780323  0.77825868  0.75869274     0.13000
C4613       C  0.63174867  0.72613500  0.74288435     0.02300
N4614       N  0.61039782  0.68792115  0.76795026    -0.81300
H4615       H  0.61303029  0.70971748  0.80154412     0.17800
C4616       C  0.63913875  0.69479868  0.73847474    -0.26200
C4617       C  0.64044720  0.68422817  0.72068085     0.35800
C4618       C  0.63441200  0.70576433  0.70687350    -0.20200
C4619       C  0.62729683  0.73746962  0.71133941    -0.25500
C4620       C  0.62594092  0.74790009  0.72918719     0.27200
H4621       H  0.64375090  0.67833121  0.74904789     0.13000
N4622       N  0.64739438  0.65131129  0.71669938    -0.82700
H4623       H  0.62267263  0.75412595  0.70085597     0.17800
N4624       N  0.61852793  0.78031021  0.73347119    -0.81300
H4625       H  0.65156018  0.63905954  0.72831822     0.33500
H4626       H  0.63690253  0.63702365  0.71150061     0.37900
H4627       H  0.61501091  0.79334750  0.72187820     0.33400
H4628       H  0.60671590  0.77624547  0.74052759     0.30100
H4629       H  0.60388029  0.67615119  0.77855418     0.33400
H4630       H  0.60045008  0.69708016  0.75944023     0.30100
H4631       H  0.66217998  0.79080560  0.79861762     0.38000
H4632       H  0.65587455  0.81369985  0.78107074     0.33500
C4633       C  0.62048994  0.34954990  0.95316444    -0.20300
C4634       C  0.60752759  0.33607824  0.96497022     0.35900
C4635       C  0.60951925  0.34070960  0.98339456    -0.26300
C4636       C  0.62379509  0.35910295  0.99048066     0.02400
C4637       C  0.63633283  0.37366940  0.97885991     0.27200
C4638       C  0.63459791  0.36868045  0.96038385    -0.25400
N4639       N  0.59260125  0.31699204  0.95842418    -0.82800
H4640       H  0.59995510  0.32938586  0.99238753     0.13000
C4641       C  0.62562841  0.36137145  0.01016718     0.02300
N4642       N  0.65083654  0.39326201  0.98588494    -0.81300
H4643       H  0.64450422  0.37952336  0.95161830     0.17800
C4644       C  0.64114816  0.34911951  0.01844804    -0.26200
C4645       C  0.64234778  0.34665324  0.03710217     0.35800
C4646       C  0.62739221  0.35525734  0.04760398    -0.20200
C4647       C  0.61220746  0.36892587  0.03933802    -0.25500
C4648       C  0.61136196  0.37287804  0.02077231     0.27200
H4649       H  0.65212690  0.34036128  0.01030280     0.13000
N4650       N  0.65828195  0.33362243  0.04528795    -0.82700
H4651       H  0.60082438  0.37594638  0.04740442     0.17800
N4652       N  0.59594581  0.38794267  0.01256659    -0.81300
H4653       H  0.66759223  0.32670216  0.03560809     0.33500
H4654       H  0.66409501  0.35338118  0.05240091     0.37900
H4655       H  0.58664845  0.39510030  0.02220883     0.33400
H4656       H  0.60013413  0.41008321  0.00629395     0.30100
H4657       H  0.65894473  0.40216064  0.97560153     0.33400
H4658       H  0.64535164  0.41444306  0.99207941     0.30100
H4659       H  0.58412045  0.33380337  0.95180019     0.38000
H4660       H  0.58516503  0.30697732  0.96892912     0.33500
C4661       C  0.63077942  0.45846894  0.87397285    -0.20300
C4662       C  0.64591849  0.47775160  0.87863870     0.35900
C4663       C  0.64499488  0.51313829  0.87748458    -0.26300
C4664       C  0.62927822  0.52942577  0.87192095     0.02400
C4665       C  0.61426931  0.51023389  0.86717964     0.27200
C4666       C  0.61521073  0.47507876  0.86815268    -0.25400
N4667       N  0.66226655  0.46155540  0.88392421    -0.82800
H4668       H  0.65650604  0.52817872  0.88107367     0.13000
C4669       C  0.62824907  0.56665254  0.87214653     0.02300
N4670       N  0.59801707  0.52658222  0.86169641    -0.81300
H4671       H  0.60351921  0.46052003  0.86458790     0.17800
C4672       C  0.62499854  0.58442073  0.85629267    -0.26200
C4673       C  0.62333211  0.61975470  0.85626663     0.35800
C4674       C  0.62535490  0.63752022  0.87243349    -0.20200
C4675       C  0.62837847  0.61944611  0.88827145    -0.25500
C4676       C  0.62961728  0.58424092  0.88832187     0.27200
H4677       H  0.62373491  0.57059759  0.84392799     0.13000
N4678       N  0.62025547  0.63752276  0.83985767    -0.82700
H4679       H  0.62966027  0.63289830  0.90075081     0.17800
N4680       N  0.63207463  0.56617790  0.90475374    -0.81300
H4681       H  0.62035062  0.62081932  0.82910980     0.33500
H4682       H  0.60734688  0.64747880  0.84036440     0.37900
H4683       H  0.63289592  0.58287261  0.91547422     0.33400
H4684       H  0.62067738  0.55154138  0.90683856     0.30100
H4685       H  0.58825048  0.50879878  0.85849413     0.33400
H4686       H  0.59317570  0.54016717  0.87258232     0.30100
H4687       H  0.66020192  0.45091260  0.89647765     0.38000
H4688       H  0.67240954  0.47935187  0.88555668     0.33500
C4689       C  0.62162759  0.13723500  0.87732941    -0.20300
C4690       C  0.61597023  0.11714040  0.86282103     0.35900
C4691       C  0.61657558  0.08175958  0.86437078    -0.26300
C4692       C  0.62242023  0.06611034  0.88012340     0.02400
C4693       C  0.62767602  0.08598334  0.89466846     0.27200
C4694       C  0.62729817  0.12113781  0.89311250    -0.25400
N4695       N  0.61006379  0.13242444  0.84647657    -0.82800
H4696       H  0.61246313  0.06622421  0.85325031     0.13000
C4697       C  0.62249535  0.02884395  0.88152065     0.02300
N4698       N  0.63324628  0.07031531  0.91104067    -0.81300
H4699       H  0.63141758  0.13604092  0.90446202     0.17800
C4700       C  0.63854941  0.01177583  0.88505377    -0.26200
C4701       C  0.63900984  0.97648199  0.88684965     0.35800
C4702       C  0.62308858  0.95788880  0.88453932    -0.20200
C4703       C  0.60701502  0.97526595  0.88132109    -0.25500
C4704       C  0.60652029  0.01049718  0.88006244     0.27200
H4705       H  0.65076454  0.02613076  0.88640101     0.13000
N4706       N  0.65564515  0.95960275  0.89034923    -0.82700
H4707       H  0.59470694  0.96124703  0.87982614     0.17800
N4708       N  0.58983875  0.02780069  0.87748739    -0.81300
H4709       H  0.66617262  0.97685384  0.89050989     0.33500
H4710       H  0.65495712  0.94966974  0.90322120     0.37900
H4711       H  0.57931252  0.01061829  0.87664578     0.33400
H4712       H  0.58750577  0.04240229  0.88882349     0.30100
H4713       H  0.63684088  0.08847512  0.92044839     0.33400
H4714       H  0.62225598  0.05748184  0.91624966     0.30100
H4715       H  0.59776887  0.14394709  0.84897967     0.38000
H4716       H  0.60760677  0.11404360  0.83682715     0.33500
C4717       C  0.70649207  0.33953139  0.87787223    -0.20300
C4718       C  0.71506718  0.32196527  0.89181208     0.35900
C4719       C  0.73377564  0.31961071  0.89196477    -0.26300
C4720       C  0.74410086  0.33557572  0.87886753     0.02400
C4721       C  0.73545716  0.35518357  0.86565684     0.27200
C4722       C  0.71670785  0.35625704  0.86505195    -0.25400
N4723       N  0.70469866  0.30486990  0.90513057    -0.82800
H4724       H  0.74029719  0.30441872  0.90205213     0.13000
C4725       C  0.76384000  0.33064536  0.87870952     0.02300
N4726       N  0.74576033  0.37358656  0.85279658    -0.81300
H4727       H  0.71001165  0.36977694  0.85441785     0.17800
C4728       C  0.77219533  0.32047231  0.86286246    -0.26200
C4729       C  0.79087255  0.31845297  0.86159242     0.35800
C4730       C  0.80143789  0.32573662  0.87664451    -0.20200
C4731       C  0.79305882  0.33320226  0.89288247    -0.25500
C4732       C  0.77440036  0.33637490  0.89401152     0.27200
H4733       H  0.76409842  0.31492246  0.85127216     0.13000
N4734       N  0.79918322  0.30985624  0.84497879    -0.82700
H4735       H  0.80115766  0.33916235  0.90442075     0.17800
N4736       N  0.76625038  0.34692989  0.91039629    -0.81300
H4737       H  0.78955225  0.30556827  0.83515480     0.33500
H4738       H  0.80599238  0.28710809  0.84683561     0.37900
H4739       H  0.77587764  0.35009135  0.92034512     0.33400
H4740       H  0.76049174  0.37058913  0.90820813     0.30100
H4741       H  0.73739051  0.38660281  0.84400195     0.33400
H4742       H  0.75309478  0.39178140  0.85969150     0.30100
H4743       H  0.69809562  0.32324363  0.91259891     0.38000
H4744       H  0.71302529  0.29199000  0.91402025     0.33500
C4745       C  0.54792820  0.24807702  0.87483769    -0.20300
C4746       C  0.54198382  0.21675532  0.86813367     0.35900
C4747       C  0.52364523  0.20927029  0.86838012    -0.26300
C4748       C  0.51120343  0.23226676  0.87525005     0.02400
C4749       C  0.51707057  0.26372631  0.88160460     0.27200
C4750       C  0.53534033  0.27123111  0.88139699    -0.25400
N4751       N  0.55453485  0.19233405  0.86157020    -0.82800
H4752       H  0.51904166  0.18503899  0.86360622     0.13000
C4753       C  0.49210467  0.22276122  0.87617623     0.02300
N4754       N  0.50442368  0.28792150  0.88822286    -0.81300
H4755       H  0.53976520  0.29547038  0.88632738     0.17800
C4756       C  0.48362046  0.22181319  0.89279262    -0.26200
C4757       C  0.46553233  0.21298517  0.89429427     0.35800
C4758       C  0.45577888  0.20448880  0.87880468    -0.20200
C4759       C  0.46434666  0.20558245  0.86217492    -0.25500
C4760       C  0.48238727  0.21467144  0.86070326     0.27200
H4761       H  0.49118557  0.22803789  0.90464646     0.13000
N4762       N  0.45703232  0.21309750  0.91143195    -0.82700
H4763       H  0.45697923  0.19899182  0.85025782     0.17800
N4764       N  0.49087453  0.21586420  0.84357124    -0.81300
H4765       H  0.46613308  0.21962263  0.92141210     0.33500
H4766       H  0.44730062  0.23200261  0.91125113     0.37900
H4767       H  0.48192313  0.20891434  0.83354021     0.33400
H4768       H  0.49440025  0.24090777  0.84109703     0.30100
H4769       H  0.51092393  0.30974727  0.89251634     0.33400
H4770       H  0.49620627  0.29503495  0.87759687     0.30100
H4771       H  0.56244137  0.18457204  0.87230592     0.38000
H4772       H  0.54791676  0.17087128  0.85695665     0.33500
C4773       C  0.63665235  0.23523400  0.79918440    -0.20300
C4774       C  0.62755163  0.20696816  0.79217337     0.35900
C4775       C  0.62759444  0.20128442  0.77362631    -0.26300
C4776       C  0.63650463  0.22321450  0.76197197     0.02400
C4777       C  0.64600643  0.25074485  0.76895652     0.27200
C4778       C  0.64600782  0.25644718  0.78742050    -0.25400
N4779       N  0.61838901  0.18411008  0.80384579    -0.82800
H4780       H  0.62058514  0.17976190  0.76818894     0.13000
C4781       C  0.63633516  0.21656920  0.74248597     0.02300
N4782       N  0.65555361  0.27290827  0.75721496    -0.81300
H4783       H  0.65300744  0.27821202  0.79258614     0.17800
C4784       C  0.62647354  0.23754132  0.73104559    -0.26200
C4785       C  0.62628180  0.23210702  0.71247752     0.35800
C4786       C  0.63600778  0.20476814  0.70521787    -0.20200
C4787       C  0.64618924  0.18439045  0.71680766    -0.25500
C4788       C  0.64650909  0.19012271  0.73527501     0.27200
H4789       H  0.61896075  0.25830613  0.73665339     0.13000
N4790       N  0.61648418  0.25453387  0.70102546    -0.82700
H4791       H  0.65377120  0.16344932  0.71149662     0.17800
N4792       N  0.65714895  0.16919628  0.74678892    -0.81300
H4793       H  0.61001770  0.27313506  0.70846083     0.33500
H4794       H  0.62575004  0.26697284  0.69298877     0.37900
H4795       H  0.66382685  0.15073275  0.73944591     0.33400
H4796       H  0.66699035  0.18441934  0.75249312     0.30100
H4797       H  0.66177921  0.29212146  0.76441539     0.33400
H4798       H  0.66573630  0.25889682  0.75124839     0.30100
H4799       H  0.62797272  0.17264285  0.81198616     0.38000
H4800       H  0.61231167  0.16482465  0.79657258     0.33500
loop_ 
_geom_bond_atom_site_label_1 
_geom_bond_atom_site_label_2 
_geom_bond_distance 
_geom_bond_site_symmetry_2 
_ccdc_geom_bond_type 
Zr1           O2   2.442       .  S
Zr1           O3   2.451       .  S
Zr1           O4   2.459       .  S
Zr1           O7   2.437       .  S
Zr1           O9   2.382       .  S
Zr1          O10   2.389       .  S
Zr1          O11   2.410       .  S
Zr1          O12   2.406       .  S
O2           H58   0.990       .  S
O2           H66   0.991       .  S
O3           C23   1.286       .  A
O4           C25   1.288       .  A
O5          Zr15   2.417       .  S
O5           C24   1.283       .  A
O6          Zr14   2.432       .  S
O6           C25   1.285       .  A
O7           C24   1.285       .  A
O8          Zr16   2.398       .  S
O8           C23   1.279       .  A
O9          Zr14   2.397       .  S
O9          Zr16   2.386       .  S
O10         Zr15   2.393       .  S
O10         Zr16   2.372       .  S
O10          H45   0.967       .  S
O11         Zr14   2.398       .  S
O11         Zr31   2.383       .  S
O11          H48   0.965       .  S
O12         Zr15   2.390       .  S
O12         Zr31   2.387       .  S
Zr13         O38   2.443       .  S
Zr13         O32   2.453       .  S
Zr13         O40   2.456       .  S
Zr13         O28   2.445       .  S
Zr13         O19   2.402       .  S
Zr13         O20   2.417       .  S
Zr13         O21   2.384       .  S
Zr13         O22   2.387       .  S
Zr14         O33   2.436       .  S
Zr14         O26   2.435       .  S
Zr14         O27   2.430       .  S
Zr14         O20   2.399       .  S
Zr14         O21   2.396       .  S
Zr15         O17   2.435       .  S
Zr15         O39   2.440       .  S
Zr15         O41   2.420       .  S
Zr15         O19   2.387       .  S
Zr15         O22   2.392       .  S
Zr16         O42   2.435       .  S
Zr16         O43   2.434       .  S
Zr16         O18   2.436       .  S
Zr16         O19   2.383       .  S
Zr16         O20   2.379       .  S
O17          H54   0.990       .  S
O18          H49   0.990       .  S
O18          H63   0.990       .  S
O20          H46   0.964       .  S
O21         Zr31   2.382       .  S
O22         Zr31   2.382       .  S
O22          H47   0.966       .  S
C23        C4689   1.491       .  S
C24        C4745   1.483       .  S
C25        C4773   1.493       .  S
O26          H62   0.990       .  S
O27          C29   1.284       .  A
O28          C29   1.286       .  A
C29        C4717   1.471       .  S
O30         Zr31   2.437       .  S
O30          H59   0.990       .  S
Zr31         O34   2.437       .  S
Zr31         O35   2.439       .  S
Zr31         O36   2.391       .  S
O32          C37   1.286       .  A
O33          H50   0.990       .  S
O33          H65   0.990       .  S
O34          H51   0.990       .  S
O35          H55   0.990       .  S
O35          H64   0.990       .  S
O36          C37   1.277       .  A
C37        C4661   1.482       .  S
O38          H57   0.990       .  S
O38          H61   0.991       .  S
O39          H53   0.990       .  S
O39          H60   0.990       .  S
O40          C44   1.288       .  A
O41          C44   1.282       .  A
O42          H52   0.990       .  S
O43          H56   0.990       .  S
C44        C4633   1.498       .  S
Zr67         O68   2.443       .  S
Zr67         O69   2.448       .  S
Zr67         O70   2.460       .  S
Zr67         O73   2.434       .  S
Zr67         O75   2.377       .  S
Zr67         O76   2.388       .  S
Zr67         O77   2.407       .  S
Zr67         O78   2.405       .  S
O68         H124   0.990       .  S
O68         H132   0.991       .  S
O69          C89   1.285       .  A
O70          C91   1.288       .  A
O71         Zr81   2.417       .  S
O71          C90   1.282       .  A
O72         Zr80   2.416       .  S
O72          C91   1.280       .  A
O73          C90   1.285       .  A
O74         Zr82   2.398       .  S
O74          C89   1.278       .  A
O75         Zr80   2.398       .  S
O75         Zr82   2.383       .  S
O76         Zr81   2.393       .  S
O76         Zr82   2.374       .  S
O76         H111   0.966       .  S
O77         Zr80   2.397       .  S
O77         Zr97   2.390       .  S
O77         H114   0.965       .  S
O78         Zr81   2.388       .  S
O78         Zr97   2.382       .  S
Zr79        O104   2.441       .  S
Zr79         O98   2.446       .  S
Zr79        O106   2.445       .  S
Zr79         O94   2.465       .  S
Zr79         O85   2.405       .  S
Zr79         O86   2.406       .  S
Zr79         O87   2.380       .  S
Zr79         O88   2.392       .  S
Zr80         O99   2.435       .  S
Zr80         O92   2.434       .  S
Zr80         O93   2.416       .  S
Zr80         O86   2.398       .  S
Zr80         O87   2.389       .  S
Zr81         O83   2.436       .  S
Zr81        O105   2.440       .  S
Zr81        O107   2.424       .  S
Zr81         O85   2.386       .  S
Zr81         O88   2.392       .  S
Zr82        O108   2.436       .  S
Zr82        O109   2.436       .  S
Zr82         O84   2.437       .  S
Zr82         O85   2.388       .  S
Zr82         O86   2.377       .  S
O83         H120   0.990       .  S
O84         H115   0.990       .  S
O84         H129   0.990       .  S
O86         H112   0.964       .  S
O87         Zr97   2.383       .  S
O88         Zr97   2.382       .  S
O88         H113   0.966       .  S
C89        C4674   1.481       .  S
C90        C4577   1.474       .  S
C91        C4605   1.495       .  S
O92         H128   0.990       .  S
O93          C95   1.281       .  A
O94          C95   1.290       .  A
C95        C4549   1.482       .  S
O96         Zr97   2.440       .  S
O96         H125   0.990       .  S
Zr97        O100   2.437       .  S
Zr97        O101   2.441       .  S
Zr97        O102   2.404       .  S
O98         C103   1.286       .  A
O99         H116   0.990       .  S
O99         H131   0.990       .  S
O100        H117   0.990       .  S
O101        H121   0.990       .  S
O101        H130   0.990       .  S
O102        C103   1.280       .  A
C103       C4702   1.484       .  S
O104        H123   0.991       .  S
O104        H127   0.990       .  S
O105        H119   0.990       .  S
O105        H126   0.990       .  S
O106        C110   1.287       .  A
O107        C110   1.284       .  A
O108        H118   0.990       .  S
O109        H122   0.990       .  S
C110       C4521   1.489       .  S
Zr133       O134   2.442       .  S
Zr133       O135   2.439       .  S
Zr133       O136   2.464       .  S
Zr133       O139   2.434       .  S
Zr133       O141   2.382       .  S
Zr133       O142   2.389       .  S
Zr133       O143   2.410       .  S
Zr133       O144   2.406       .  S
O134        H190   0.990       .  S
O134        H198   0.990       .  S
O135        C155   1.284       .  A
O136        C157   1.288       .  A
O137       Zr147   2.413       .  S
O137        C156   1.282       .  A
O138       Zr146   2.429       .  S
O138        C157   1.284       .  A
O139        C156   1.284       .  A
O140       Zr148   2.401       .  S
O140        C155   1.279       .  A
O141       Zr146   2.394       .  S
O141       Zr148   2.387       .  S
O142       Zr147   2.395       .  S
O142       Zr148   2.374       .  S
O142        H177   0.966       .  S
O143       Zr146   2.396       .  S
O143       Zr163   2.388       .  S
O143        H180   0.965       .  S
O144       Zr147   2.392       .  S
O144       Zr163   2.385       .  S
Zr145       O170   2.440       .  S
Zr145       O164   2.435       .  S
Zr145       O172   2.457       .  S
Zr145       O160   2.459       .  S
Zr145       O151   2.395       .  S
Zr145       O152   2.412       .  S
Zr145       O153   2.387       .  S
Zr145       O154   2.386       .  S
Zr146       O165   2.437       .  S
Zr146       O158   2.435       .  S
Zr146       O159   2.410       .  S
Zr146       O152   2.403       .  S
Zr146       O153   2.396       .  S
Zr147       O149   2.436       .  S
Zr147       O171   2.438       .  S
Zr147       O173   2.431       .  S
Zr147       O151   2.382       .  S
Zr147       O154   2.385       .  S
Zr148       O174   2.437       .  S
Zr148       O175   2.435       .  S
Zr148       O150   2.434       .  S
Zr148       O151   2.380       .  S
Zr148       O152   2.390       .  S
O149        H186   0.990       .  S
O150        H181   0.990       .  S
O150        H195   0.990       .  S
O152        H178   0.965       .  S
O153       Zr163   2.382       .  S
O154       Zr163   2.382       .  S
O154        H179   0.966       .  S
C155       C4450   1.484       .  S
C156       C4493   1.472       .  S
C157       C4786   1.497       .  S
O158        H194   0.990       .  S
O159        C161   1.282       .  A
O160        C161   1.287       .  A
C161       C4478   1.496       .  S
O162       Zr163   2.439       .  S
O162        H191   0.990       .  S
Zr163       O166   2.438       .  S
Zr163       O167   2.439       .  S
Zr163       O168   2.399       .  S
O164        C169   1.283       .  A
O165        H182   0.990       .  S
O165        H197   0.990       .  S
O166        H183   0.990       .  S
O167        H187   0.990       .  S
O167        H196   0.990       .  S
O168        C169   1.279       .  A
C169       C4422   1.476   1_545  S
O170        H189   0.990       .  S
O170        H193   0.990       .  S
O171        H185   0.990       .  S
O171        H192   0.990       .  S
O172        C176   1.289       .  A
O173        C176   1.286       .  A
O174        H184   0.990       .  S
O175        H188   0.990       .  S
C176       C4394   1.497       .  S
Zr199       O200   2.444       .  S
Zr199       O201   2.450       .  S
Zr199       O202   2.445       .  S
Zr199       O205   2.433       .  S
Zr199       O207   2.378       .  S
Zr199       O208   2.386       .  S
Zr199       O209   2.411       .  S
Zr199       O210   2.401       .  S
O200        H256   0.990       .  S
O200        H264   0.991       .  S
O201        C221   1.286       .  A
O202        C223   1.285       .  A
O203       Zr213   2.412       .  S
O203        C222   1.281       .  A
O204       Zr212   2.430       .  S
O204        C223   1.284       .  A
O205        C222   1.286       .  A
O206       Zr214   2.396       .  S
O206        C221   1.277       .  A
O207       Zr212   2.398       .  S
O207       Zr214   2.385       .  S
O208       Zr213   2.390       .  S
O208       Zr214   2.371       .  S
O208        H243   0.966       .  S
O209       Zr212   2.400       .  S
O209       Zr229   2.397       .  S
O209        H246   0.965       .  S
O210       Zr213   2.387       .  S
O210       Zr229   2.382       .  S
Zr211       O236   2.442       .  S
Zr211       O230   2.442       .  S
Zr211       O238   2.445       .  S
Zr211       O226   2.453       .  S
Zr211       O217   2.401       .  S
Zr211       O218   2.413       .  S
Zr211       O219   2.386       .  S
Zr211       O220   2.384       .  S
Zr212       O231   2.435       .  S
Zr212       O224   2.435       .  S
Zr212       O225   2.420       .  S
Zr212       O218   2.404       .  S
Zr212       O219   2.398       .  S
Zr213       O215   2.435       .  S
Zr213       O237   2.436       .  S
Zr213       O239   2.420       .  S
Zr213       O217   2.385       .  S
Zr213       O220   2.388       .  S
Zr214       O240   2.435       .  S
Zr214       O241   2.434       .  S
Zr214       O216   2.436       .  S
Zr214       O217   2.386       .  S
Zr214       O218   2.378       .  S
O215        H252   0.990       .  S
O216        H247   0.990       .  S
O216        H261   0.990       .  S
O218        H244   0.964       .  S
O219       Zr229   2.385       .  S
O220       Zr229   2.379       .  S
O220        H245   0.966       .  S
C221       C4409   1.483       .  S
C222       C4353   1.482       .  S
C223       C4618   1.488       .  S
O224        H260   0.990       .  S
O225        C227   1.282       .  A
O226        C227   1.287       .  A
C227       C4325   1.475       .  S
O228       Zr229   2.440       .  S
O228        H257   0.990       .  S
Zr229       O232   2.438       .  S
Zr229       O233   2.441       .  S
Zr229       O234   2.408       .  S
O230        C235   1.284       .  A
O231        H248   0.990       .  S
O231        H263   0.989       .  S
O232        H249   0.990       .  S
O233        H253   0.990       .  S
O233        H262   0.990       .  S
O234        C235   1.280       .  A
C235       C4437   1.488       .  S
O236        H255   0.991       .  S
O236        H259   0.990       .  S
O237        H251   0.990       .  S
O237        H258   0.990       .  S
O238        C242   1.286       .  A
O239        C242   1.283       .  A
O240        H250   0.990       .  S
O241        H254   0.990       .  S
C242       C4297   1.484       .  S
Zr265       O266   2.443       .  S
Zr265       O267   2.445       .  S
Zr265       O268   2.457       .  S
Zr265       O271   2.435       .  S
Zr265       O273   2.379       .  S
Zr265       O274   2.389       .  S
Zr265       O275   2.411       .  S
Zr265       O276   2.407       .  S
O266        H322   0.990       .  S
O266        H330   0.991       .  S
O267        C287   1.285       .  A
O268        C289   1.287       .  A
O269       Zr279   2.428       .  S
O269        C288   1.284       .  A
O270       Zr278   2.435       .  S
O270        C289   1.284       .  A
O271        C288   1.285       .  A
O272       Zr280   2.400       .  S
O272        C287   1.277       .  A
O273       Zr278   2.391       .  S
O273       Zr280   2.382       .  S
O274       Zr279   2.396       .  S
O274       Zr280   2.381       .  S
O274        H309   0.965       .  S
O275       Zr278   2.395       .  S
O275       Zr295   2.385       .  S
O275        H312   0.965       .  S
O276       Zr279   2.390       .  S
O276       Zr295   2.394       .  S
Zr277       O302   2.441       .  S
Zr277       O296   2.446       .  S
Zr277       O304   2.460       .  S
Zr277       O292   2.471       .  S
Zr277       O283   2.405       .  S
Zr277       O284   2.411       .  S
Zr277       O285   2.386       .  S
Zr277       O286   2.391       .  S
Zr278       O297   2.435       .  S
Zr278       O290   2.436       .  S
Zr278       O291   2.410       .  S
Zr278       O284   2.403       .  S
Zr278       O285   2.398       .  S
Zr279       O281   2.436       .  S
Zr279       O303   2.439       .  S
Zr279       O305   2.423       .  S
Zr279       O283   2.389       .  S
Zr279       O286   2.395       .  S
Zr280       O306   2.435       .  S
Zr280       O307   2.436       .  S
Zr280       O282   2.437       .  S
Zr280       O283   2.390       .  S
Zr280       O284   2.378       .  S
O281        H318   0.990       .  S
O282        H313   0.990       .  S
O282        H327   0.989       .  S
O284        H310   0.964       .  S
O285       Zr295   2.380       .  S
O286       Zr295   2.384       .  S
O286        H311   0.966       .  S
C287       C4213   1.475       .  S
C288       C4758   1.484       .  S
C289       C4269   1.483       .  S
O290        H326   0.990       .  S
O291        C293   1.282       .  A
O292        C293   1.290       .  A
C293       C4254   1.491       .  S
O294       Zr295   2.440       .  S
O294        H323   0.990       .  S
Zr295       O298   2.437       .  S
Zr295       O299   2.441       .  S
Zr295       O300   2.407       .  S
O296        C301   1.285       .  A
O297        H314   0.990       .  S
O297        H329   0.990       .  S
O298        H315   0.990       .  S
O299        H319   0.990       .  S
O299        H328   0.990       .  S
O300        C301   1.279       .  A
C301       C4185   1.477   1_545  S
O302        H321   0.991       .  S
O302        H325   0.990       .  S
O303        H317   0.990       .  S
O303        H324   0.990       .  S
O304        C308   1.290       .  A
O305        C308   1.283       .  A
O306        H316   0.990       .  S
O307        H320   0.990       .  S
C308       C4157   1.501       .  S
Zr331       O332   2.442       .  S
Zr331       O333   2.453       .  S
Zr331       O334   2.456       .  S
Zr331       O337   2.427       .  S
Zr331       O339   2.378       .  S
Zr331       O340   2.387       .  S
Zr331       O341   2.407       .  S
Zr331       O342   2.410       .  S
O332        H388   0.990       .  S
O332        H396   0.990       .  S
O333        C353   1.287       .  A
O334        C355   1.287       .  A
O335       Zr345   2.414       .  S
O335        C354   1.282       .  A
O336       Zr344   2.413       .  S
O336        C355   1.282       .  A
O337        C354   1.284       .  A
O338       Zr346   2.420       .  S
O338        C353   1.281       .  A
O339       Zr344   2.395       .  S
O339       Zr346   2.383       .  S
O340       Zr345   2.397       .  S
O340       Zr346   2.371       .  S
O340        H375   0.966       .  S
O341       Zr344   2.394       .  S
O341       Zr361   2.386       .  S
O341        H378   0.965       .  S
O342       Zr345   2.387       .  S
O342       Zr361   2.388       .  S
Zr343       O368   2.442       .  S
Zr343       O362   2.446       .  S
Zr343       O370   2.437       .  S
Zr343       O358   2.457       .  S
Zr343       O349   2.403       .  S
Zr343       O350   2.411       .  S
Zr343       O351   2.380       .  S
Zr343       O352   2.389       .  S
Zr344       O363   2.436       .  S
Zr344       O356   2.435       .  S
Zr344       O357   2.405       .  S
Zr344       O350   2.399       .  S
Zr344       O351   2.390       .  S
Zr345       O347   2.435       .  S
Zr345       O369   2.437       .  S
Zr345       O371   2.425       .  S
Zr345       O349   2.386       .  S
Zr345       O352   2.391       .  S
Zr346       O372   2.436       .  S
Zr346       O373   2.435       .  S
Zr346       O348   2.437       .  S
Zr346       O349   2.391       .  S
Zr346       O350   2.388       .  S
O347        H384   0.990       .  S
O348        H379   0.990       .  S
O348        H393   0.990       .  S
O350        H376   0.964       .  S
O351       Zr361   2.382       .  S
O352       Zr361   2.379       .  S
O352        H377   0.966       .  S
C353       C4198   1.488       .  S
C354       C4590   1.473       .  S
C355       C4129   1.486       .  S
O356        H392   0.990       .  S
O357        C359   1.281       .  A
O358        C359   1.287       .  A
C359       C4101   1.485       .  S
O360       Zr361   2.440       .  S
O360        H389   0.990       .  S
Zr361       O364   2.437       .  S
Zr361       O365   2.440       .  S
Zr361       O366   2.406       .  S
O362        C367   1.285       .  A
O363        H380   0.990       .  S
O363        H395   0.990       .  S
O364        H381   0.990       .  S
O365        H385   0.990       .  S
O365        H394   0.990       .  S
O366        C367   1.280       .  A
C367       C4226   1.483       .  S
O368        H387   0.991       .  S
O368        H391   0.990       .  S
O369        H383   0.990       .  S
O369        H390   0.990       .  S
O370        C374   1.285       .  A
O371        C374   1.283       .  A
O372        H382   0.990       .  S
O373        H386   0.990       .  S
C374       C4073   1.477       .  S
Zr397       O398   2.443       .  S
Zr397       O399   2.437       .  S
Zr397       O400   2.453       .  S
Zr397       O403   2.421       .  S
Zr397       O405   2.377       .  S
Zr397       O406   2.387       .  S
Zr397       O407   2.402       .  S
Zr397       O408   2.402       .  S
O398        H454   0.990       .  S
O398        H462   0.990       .  S
O399        C419   1.284       .  A
O400        C421   1.286       .  A
O401       Zr411   2.423       .  S
O401        C420   1.284       .  A
O402       Zr410   2.444       .  S
O402        C421   1.285       .  A
O403        C420   1.283       .  A
O404       Zr412   2.400       .  S
O404        C419   1.277       .  A
O405       Zr410   2.395       .  S
O405       Zr412   2.385       .  S
O406       Zr411   2.397       .  S
O406       Zr412   2.370       .  S
O406        H441   0.966       .  S
O407       Zr410   2.397       .  S
O407       Zr427   2.380       .  S
O407        H444   0.964       .  S
O408       Zr411   2.398       .  S
O408       Zr427   2.386       .  S
Zr409       O434   2.442       .  S
Zr409       O428   2.459       .  S
Zr409       O436   2.449       .  S
Zr409       O424   2.440       .  S
Zr409       O415   2.396       .  S
Zr409       O416   2.420       .  S
Zr409       O417   2.382       .  S
Zr409       O418   2.383       .  S
Zr410       O429   2.435       .  S
Zr410       O422   2.436       .  S
Zr410       O423   2.420       .  S
Zr410       O416   2.406       .  S
Zr410       O417   2.402       .  S
Zr411       O413   2.435       .  S
Zr411       O435   2.438       .  S
Zr411       O437   2.445       .  S
Zr411       O415   2.383       .  S
Zr411       O418   2.390       .  S
Zr412       O438   2.436       .  S
Zr412       O439   2.435       .  S
Zr412       O414   2.436       .  S
Zr412       O415   2.383       .  S
Zr412       O416   2.388       .  S
O413        H450   0.990       .  S
O414        H445   0.990       .  S
O414        H459   0.990       .  S
O416        H442   0.965       .  S
O417       Zr427   2.380       .  S
O418       Zr427   2.385       .  S
O418        H443   0.966       .  S
C419       C4030   1.482       .  S
C420       C4506   1.473       .  S
C421       C4282   1.488       .  S
O422        H458   0.990       .  S
O423        C425   1.282       .  A
O424        C425   1.284       .  A
C425       C4058   1.467       .  S
O426       Zr427   2.439       .  S
O426        H455   0.990       .  S
Zr427       O430   2.438       .  S
Zr427       O431   2.438       .  S
Zr427       O432   2.390       .  S
O428        C433   1.288       .  A
O429        H446   0.990       .  S
O429        H461   0.990       .  S
O430        H447   0.990       .  S
O431        H451   0.990       .  S
O431        H460   0.990       .  S
O432        C433   1.276       .  A
C433       C3989   1.484       .  S
O434        H453   0.991       .  S
O434        H457   0.990       .  S
O435        H449   0.990       .  S
O435        H456   0.990       .  S
O436        C440   1.287       .  A
O437        C440   1.287       .  A
O438        H448   0.990       .  S
O439        H452   0.990       .  S
C440       C3961   1.489       .  S
Zr463       O464   2.443       .  S
Zr463       O465   2.449       .  S
Zr463       O466   2.458       .  S
Zr463       O469   2.448       .  S
Zr463       O471   2.384       .  S
Zr463       O472   2.390       .  S
Zr463       O473   2.411       .  S
Zr463       O474   2.397       .  S
O464        H520   0.990       .  S
O464        H528   0.990       .  S
O465        C485   1.286       .  A
O466        C487   1.287       .  A
O467       Zr477   2.411       .  S
O467        C486   1.282       .  A
O468       Zr476   2.414       .  S
O468        C487   1.281       .  A
O469        C486   1.287       .  A
O470       Zr478   2.396       .  S
O470        C485   1.277       .  A
O471       Zr476   2.397       .  S
O471       Zr478   2.386       .  S
O472       Zr477   2.391       .  S
O472       Zr478   2.377       .  S
O472        H507   0.966       .  S
O473       Zr476   2.400       .  S
O473       Zr493   2.389       .  S
O473        H510   0.965       .  S
O474       Zr477   2.388       .  S
O474       Zr493   2.379       .  S
Zr475       O500   2.441       .  S
Zr475       O494   2.446       .  S
Zr475       O502   2.451       .  S
Zr475       O490   2.449       .  S
Zr475       O481   2.397       .  S
Zr475       O482   2.414       .  S
Zr475       O483   2.380       .  S
Zr475       O484   2.383       .  S
Zr476       O495   2.437       .  S
Zr476       O488   2.435       .  S
Zr476       O489   2.417       .  S
Zr476       O482   2.396       .  S
Zr476       O483   2.394       .  S
Zr477       O479   2.435       .  S
Zr477       O501   2.439       .  S
Zr477       O503   2.421       .  S
Zr477       O481   2.382       .  S
Zr477       O484   2.390       .  S
Zr478       O504   2.435       .  S
Zr478       O505   2.435       .  S
Zr478       O480   2.437       .  S
Zr478       O481   2.382       .  S
Zr478       O482   2.381       .  S
O479        H516   0.990       .  S
O480        H511   0.991       .  S
O480        H525   0.990       .  S
O482        H508   0.964       .  S
O483       Zr493   2.380       .  S
O484       Zr493   2.384       .  S
O484        H509   0.966       .  S
C485       C4002   1.478       .  S
C486       C4366   1.478       .  S
C487       C4142   1.485       .  S
O488        H524   0.990       .  S
O489        C491   1.281       .  A
O490        C491   1.286       .  A
C491       C3933   1.471       .  S
O492       Zr493   2.440       .  S
O492        H521   0.990       .  S
Zr493       O496   2.438       .  S
Zr493       O497   2.440       .  S
Zr493       O498   2.397       .  S
O494        C499   1.286       .  A
O495        H512   0.990       .  S
O495        H527   0.990       .  S
O496        H513   0.990       .  S
O497        H517   0.990       .  S
O497        H526   0.990       .  S
O498        C499   1.277       .  A
C499       C4017   1.478       .  S
O500        H519   0.991       .  S
O500        H523   0.990       .  S
O501        H515   0.990       .  S
O501        H522   0.990       .  S
O502        C506   1.288       .  A
O503        C506   1.284       .  A
O504        H514   0.990       .  S
O505        H518   0.990       .  S
C506       C3905   1.489       .  S
Zr529       O530   2.441       .  S
Zr529       O531   2.451       .  S
Zr529       O532   2.465       .  S
Zr529       O535   2.437       .  S
Zr529       O537   2.379       .  S
Zr529       O538   2.389       .  S
Zr529       O539   2.408   1_565  S
Zr529       O540   2.412   1_565  S
O530        H586   0.990       .  S
O530        H594   0.990       .  S
O531        C551   1.286       .  A
O532        C553   1.289       .  A
O533       Zr543   2.423       .  S
O533        C552   1.284   1_545  A
O534       Zr542   2.418       .  S
O534        C553   1.282   1_545  A
O535        C552   1.286       .  A
O536       Zr544   2.401       .  S
O536        C551   1.278       .  A
O537       Zr542   2.394   1_565  S
O537       Zr544   2.384       .  S
O538       Zr543   2.394   1_565  S
O538       Zr544   2.370       .  S
O538        H573   0.967       .  S
O539       Zr542   2.398       .  S
O539       Zr559   2.383       .  S
O539        H576   0.965       .  S
O540       Zr543   2.391       .  S
O540       Zr559   2.393       .  S
Zr541       O566   2.441       .  S
Zr541       O560   2.447       .  S
Zr541       O568   2.452       .  S
Zr541       O556   2.471       .  S
Zr541       O547   2.404       .  S
Zr541       O548   2.410       .  S
Zr541       O549   2.383       .  S
Zr541       O550   2.392       .  S
Zr542       O561   2.435       .  S
Zr542       O554   2.435   1_545  S
Zr542       O555   2.409       .  S
Zr542       O548   2.402       .  S
Zr542       O549   2.393       .  S
Zr543       O545   2.434       .  S
Zr543       O567   2.439       .  S
Zr543       O569   2.424       .  S
Zr543       O547   2.387       .  S
Zr543       O550   2.393       .  S
Zr544       O570   2.435       .  S
Zr544       O571   2.435       .  S
Zr544       O546   2.436       .  S
Zr544       O547   2.385   1_565  S
Zr544       O548   2.379   1_565  S
O545        H582   0.990       .  S
O546        H577   0.990       .  S
O546        H591   0.990       .  S
O548        H574   0.964       .  S
O549       Zr559   2.381       .  S
O550       Zr559   2.380       .  S
O550        H575   0.966       .  S
C551       C3793   1.481       .  S
C552       C3862   1.488       .  S
C553       C3890   1.487       .  S
O554        H590   0.990       .  S
O555        C557   1.282       .  A
O556        C557   1.290       .  A
C557       C4465   1.486       .  S
O558       Zr559   2.440       .  S
O558        H587   0.990       .  S
Zr559       O562   2.437       .  S
Zr559       O563   2.440       .  S
Zr559       O564   2.404       .  S
O560        C565   1.285       .  A
O561        H578   0.990       .  S
O561        H593   0.989       .  S
O562        H579   0.990       .  S
O563        H583   0.990       .  S
O563        H592   0.990       .  S
O564        C565   1.278       .  A
C565       C3821   1.477       .  S
O566        H585   0.990       .  S
O566        H589   0.990       .  S
O567        H581   0.990       .  S
O567        H588   0.990   1_545  S
O568        C572   1.288       .  A
O569        C572   1.285       .  A
O570        H580   0.990       .  S
O571        H584   0.990   1_565  S
C572       C3765   1.499       .  S
Zr595       O596   2.442       .  S
Zr595       O597   2.435       .  S
Zr595       O598   2.450       .  S
Zr595       O601   2.443       .  S
Zr595       O603   2.385       .  S
Zr595       O604   2.387       .  S
Zr595       O605   2.408       .  S
Zr595       O606   2.398       .  S
O596        H652   0.990       .  S
O596        H660   0.990       .  S
O597        C617   1.283       .  A
O598        C619   1.286       .  A
O599       Zr609   2.416       .  S
O599        C618   1.283       .  A
O600       Zr608   2.425       .  S
O600        C619   1.284       .  A
O601        C618   1.286       .  A
O602       Zr610   2.406       .  S
O602        C617   1.279       .  A
O603       Zr608   2.397       .  S
O603       Zr610   2.383       .  S
O604       Zr609   2.393       .  S
O604       Zr610   2.374       .  S
O604        H639   0.966       .  S
O605       Zr608   2.400       .  S
O605       Zr625   2.380       .  S
O605        H642   0.965       .  S
O606       Zr609   2.389       .  S
O606       Zr625   2.383       .  S
Zr607       O632   2.442       .  S
Zr607       O626   2.464       .  S
Zr607       O634   2.444       .  S
Zr607       O622   2.451       .  S
Zr607       O613   2.404       .  S
Zr607       O614   2.419       .  S
Zr607       O615   2.383       .  S
Zr607       O616   2.381       .  S
Zr608       O627   2.435       .  S
Zr608       O620   2.435       .  S
Zr608       O621   2.427       .  S
Zr608       O614   2.398       .  S
Zr608       O615   2.397       .  S
Zr609       O611   2.435       .  S
Zr609       O633   2.436       .  S
Zr609       O635   2.430       .  S
Zr609       O613   2.385       .  S
Zr609       O616   2.390       .  S
Zr610       O636   2.434       .  S
Zr610       O637   2.436       .  S
Zr610       O612   2.437       .  S
Zr610       O613   2.389       .  S
Zr610       O614   2.383       .  S
O611        H648   0.990       .  S
O612        H643   0.991       .  S
O612        H657   0.990       .  S
O614        H640   0.963       .  S
O615       Zr625   2.384       .  S
O616       Zr625   2.381       .  S
O616        H641   0.965       .  S
C617       C3834   1.477       .  S
C618       C3722   1.482       .  S
C619       C3737   1.489       .  S
O620        H656   0.990       .  S
O621        C623   1.283       .  A
O622        C623   1.286       .  A
C623       C4338   1.473       .  S
O624       Zr625   2.439       .  S
O624        H653   0.990       .  S
Zr625       O628   2.439       .  S
Zr625       O629   2.439       .  S
Zr625       O630   2.392       .  S
O626        C631   1.289       .  A
O627        H644   0.990       .  S
O627        H659   0.990       .  S
O628        H645   0.990       .  S
O629        H649   0.989       .  S
O629        H658   0.989       .  S
O630        C631   1.276       .  A
C631       C3806   1.490       .  S
O632        H651   0.991       .  S
O632        H655   0.990       .  S
O633        H647   0.990       .  S
O633        H654   0.990       .  S
O634        C638   1.286       .  A
O635        C638   1.285       .  A
O636        H646   0.990       .  S
O637        H650   0.990       .  S
C638       C3681   1.486       .  S
Zr661       O662   2.442       .  S
Zr661       O663   2.450       .  S
Zr661       O664   2.446       .  S
Zr661       O667   2.442       .  S
Zr661       O669   2.382       .  S
Zr661       O670   2.384       .  S
Zr661       O671   2.414       .  S
Zr661       O672   2.400       .  S
O662        H718   0.990       .  S
O662        H726   0.990       .  S
O663        C683   1.285       .  A
O664        C685   1.285       .  A
O665       Zr675   2.419       .  S
O665        C684   1.284       .  A
O666       Zr674   2.426       .  S
O666        C685   1.284       .  A
O667        C684   1.286       .  A
O668       Zr676   2.413       .  S
O668        C683   1.279       .  A
O669       Zr674   2.402       .  S
O669       Zr676   2.383       .  S
O670       Zr675   2.397       .  S
O670       Zr676   2.376       .  S
O670        H705   0.966       .  S
O671       Zr674   2.395       .  S
O671       Zr691   2.388       .  S
O671        H708   0.965       .  S
O672       Zr675   2.384       .  S
O672       Zr691   2.386       .  S
Zr673       O698   2.440       .  S
Zr673       O692   2.457       .  S
Zr673       O700   2.459       .  S
Zr673       O688   2.455       .  S
Zr673       O679   2.404       .  S
Zr673       O680   2.422       .  S
Zr673       O681   2.387       .  S
Zr673       O682   2.386       .  S
Zr674       O693   2.435       .  S
Zr674       O686   2.434       .  S
Zr674       O687   2.426       .  S
Zr674       O680   2.402       .  S
Zr674       O681   2.395       .  S
Zr675       O677   2.436       .  S
Zr675       O699   2.439       .  S
Zr675       O701   2.417       .  S
Zr675       O679   2.385       .  S
Zr675       O682   2.392       .  S
Zr676       O702   2.435       .  S
Zr676       O703   2.435       .  S
Zr676       O678   2.437       .  S
Zr676       O679   2.392       .  S
Zr676       O680   2.380       .  S
O677        H714   0.990       .  S
O678        H709   0.990       .  S
O678        H723   0.990       .  S
O680        H706   0.964       .  S
O681       Zr691   2.384       .  S
O682       Zr691   2.385       .  S
O682        H707   0.966       .  S
C683       C3610   1.487       .  S
C684       C3653   1.486       .  S
C685       C3750   1.487       .  S
O686        H722   0.990       .  S
O687        C689   1.284       .  A
O688        C689   1.287       .  A
C689       C4730   1.480       .  S
O690       Zr691   2.442       .  S
O690        H719   0.990       .  S
Zr691       O694   2.438       .  S
Zr691       O695   2.441       .  S
Zr691       O696   2.404       .  S
O692        C697   1.287       .  A
O693        H710   0.990       .  S
O693        H725   0.990       .  S
O694        H711   0.990       .  S
O695        H715   0.990       .  S
O695        H724   0.989       .  S
O696        C697   1.278       .  A
C697       C3625   1.493       .  S
O698        H717   0.990       .  S
O698        H721   0.990       .  S
O699        H713   0.990       .  S
O699        H720   0.990       .  S
O700        C704   1.288       .  A
O701        C704   1.283       .  A
O702        H712   0.990       .  S
O703        H716   0.990       .  S
C704       C3569   1.490       .  S
Zr727       O728   2.441       .  S
Zr727       O729   2.460       .  S
Zr727       O730   2.453       .  S
Zr727       O733   2.446       .  S
Zr727       O735   2.380       .  S
Zr727       O736   2.384       .  S
Zr727       O737   2.415       .  S
Zr727       O738   2.407       .  S
O728        H784   0.990       .  S
O728        H792   0.991       .  S
O729        C749   1.288   1_565  A
O730        C751   1.286       .  A
O731       Zr741   2.428       .  S
O731        C750   1.285       .  A
O732       Zr740   2.444       .  S
O732        C751   1.286       .  A
O733        C750   1.287       .  A
O734       Zr742   2.395       .  S
O734        C749   1.277   1_565  A
O735       Zr740   2.399       .  S
O735       Zr742   2.388       .  S
O736       Zr741   2.392       .  S
O736       Zr742   2.375       .  S
O736        H771   0.966       .  S
O737       Zr740   2.401       .  S
O737       Zr757   2.383       .  S
O737        H774   0.964       .  S
O738       Zr741   2.388       .  S
O738       Zr757   2.390       .  S
Zr739       O764   2.441       .  S
Zr739       O758   2.455       .  S
Zr739       O766   2.473       .  S
Zr739       O754   2.471       .  S
Zr739       O745   2.402       .  S
Zr739       O746   2.414       .  S
Zr739       O747   2.388       .  S
Zr739       O748   2.394       .  S
Zr740       O759   2.436       .  S
Zr740       O752   2.436       .  S
Zr740       O753   2.431       .  S
Zr740       O746   2.405       .  S
Zr740       O747   2.399       .  S
Zr741       O743   2.437       .  S
Zr741       O765   2.438       .  S
Zr741       O767   2.421       .  S
Zr741       O745   2.396       .  S
Zr741       O748   2.396       .  S
Zr742       O768   2.437       .  S
Zr742       O769   2.437       .  S
Zr742       O744   2.436       .  S
Zr742       O745   2.382       .  S
Zr742       O746   2.380       .  S
O743        H780   0.990       .  S
O744        H775   0.990       .  S
O744        H789   0.990       .  S
O746        H772   0.964       .  S
O747       Zr757   2.383       .  S
O748       Zr757   2.378       .  S
O748        H773   0.966       .  S
C749       C3638   1.480       .  S
C750       C3541   1.494       .  S
C751       C3877   1.490       .  S
O752        H788   0.990       .  S
O753        C755   1.284       .  A
O754        C755   1.291       .  A
C755       C4562   1.486       .  S
O756       Zr757   2.438       .  S
O756        H785   0.991       .  S
Zr757       O760   2.438       .  S
Zr757       O761   2.438       .  S
Zr757       O762   2.400       .  S
O758        C763   1.287       .  A
O759        H776   0.990       .  S
O759        H791   0.990       .  S
O760        H777   0.990       .  S
O761        H781   0.990       .  S
O761        H790   0.990       .  S
O762        C763   1.278       .  A
C763       C3597   1.478       .  S
O764        H783   0.990       .  S
O764        H787   0.990       .  S
O765        H779   0.990       .  S
O765        H786   0.990       .  S
O766        C770   1.291       .  A
O767        C770   1.284       .  A
O768        H778   0.991       .  S
O769        H782   0.990       .  S
C770       C3513   1.493       .  S
Zr793       O794   2.442       .  S
Zr793       O795   2.444       .  S
Zr793       O796   2.472       .  S
Zr793       O799   2.445       .  S
Zr793       O801   2.381       .  S
Zr793       O802   2.394       .  S
Zr793       O803   2.407   1_565  S
Zr793       O804   2.404   1_565  S
O794        H850   0.990       .  S
O794        H858   0.991       .  S
O795        C815   1.286       .  A
O796        C817   1.289       .  A
O797       Zr807   2.424   1_565  S
O797        C816   1.284       .  A
O798       Zr806   2.413       .  S
O798        C817   1.281   1_545  A
O799        C816   1.288       .  A
O800       Zr808   2.395       .  S
O800        C815   1.277       .  A
O801       Zr806   2.395   1_565  S
O801       Zr808   2.389       .  S
O802       Zr807   2.395   1_565  S
O802       Zr808   2.372       .  S
O802        H837   0.966       .  S
O803       Zr806   2.393       .  S
O803       Zr823   2.390       .  S
O803        H840   0.965       .  S
O804       Zr807   2.388       .  S
O804       Zr823   2.381       .  S
Zr805       O830   2.441       .  S
Zr805       O824   2.448       .  S
Zr805       O832   2.453       .  S
Zr805       O820   2.477       .  S
Zr805       O811   2.409       .  S
Zr805       O812   2.413       .  S
Zr805       O813   2.386       .  S
Zr805       O814   2.392       .  S
Zr806       O825   2.434       .  S
Zr806       O818   2.434   1_545  S
Zr806       O819   2.407       .  S
Zr806       O812   2.400       .  S
Zr806       O813   2.394       .  S
Zr807       O809   2.435       .  S
Zr807       O831   2.439   1_545  S
Zr807       O833   2.423       .  S
Zr807       O811   2.389       .  S
Zr807       O814   2.392       .  S
Zr808       O834   2.436       .  S
Zr808       O835   2.437       .  S
Zr808       O810   2.437       .  S
Zr808       O811   2.385   1_565  S
Zr808       O812   2.373   1_565  S
O809        H846   0.990       .  S
O810        H841   0.991       .  S
O810        H855   0.990       .  S
O812        H838   0.963       .  S
O813       Zr823   2.389       .  S
O814       Zr823   2.378       .  S
O814        H839   0.966       .  S
C815       C3429   1.478       .  S
C816       C3554   1.490       .  S
C817       C3485   1.492       .  S
O818        H854   0.990       .  S
O819        C821   1.281       .  A
O820        C821   1.291       .  A
C821       C4241   1.492       .  S
O822       Zr823   2.439       .  S
O822        H851   0.990       .  S
Zr823       O826   2.438       .  S
Zr823       O827   2.440       .  S
Zr823       O828   2.401       .  S
O824        C829   1.286       .  A
O825        H842   0.990       .  S
O825        H857   0.990       .  S
O826        H843   0.990       .  S
O827        H847   0.990       .  S
O827        H856   0.990       .  S
O828        C829   1.278       .  A
C829       C3457   1.483       .  S
O830        H849   0.990       .  S
O830        H853   0.990       .  S
O831        H845   0.990       .  S
O831        H852   0.990       .  S
O832        C836   1.288       .  A
O833        C836   1.285       .  A
O834        H844   0.990       .  S
O835        H848   0.990   1_565  S
C836       C3414   1.493       .  S
Zr859       O860   2.442       .  S
Zr859       O861   2.450       .  S
Zr859       O862   2.462       .  S
Zr859       O865   2.434       .  S
Zr859       O867   2.379       .  S
Zr859       O868   2.390       .  S
Zr859       O869   2.409       .  S
Zr859       O870   2.407       .  S
O860        H916   0.990       .  S
O860        H924   0.991       .  S
O861        C881   1.286       .  A
O862        C883   1.287       .  A
O863       Zr873   2.421       .  S
O863        C882   1.284       .  A
O864       Zr872   2.430       .  S
O864        C883   1.283       .  A
O865        C882   1.285       .  A
O866       Zr874   2.405       .  S
O866        C881   1.279       .  A
O867       Zr872   2.399       .  S
O867       Zr874   2.388       .  S
O868       Zr873   2.391       .  S
O868       Zr874   2.376       .  S
O868        H903   0.966       .  S
O869       Zr872   2.394       .  S
O869       Zr889   2.395       .  S
O869        H906   0.965       .  S
O870       Zr873   2.387       .  S
O870       Zr889   2.385       .  S
Zr871       O896   2.442       .  S
Zr871       O890   2.434       .  S
Zr871       O898   2.448       .  S
Zr871       O886   2.453       .  S
Zr871       O877   2.400       .  S
Zr871       O878   2.408       .  S
Zr871       O879   2.384       .  S
Zr871       O880   2.388       .  S
Zr872       O891   2.436       .  S
Zr872       O884   2.433       .  S
Zr872       O885   2.412       .  S
Zr872       O878   2.403       .  S
Zr872       O879   2.394       .  S
Zr873       O875   2.436       .  S
Zr873       O897   2.437       .  S
Zr873       O899   2.423       .  S
Zr873       O877   2.384       .  S
Zr873       O880   2.391       .  S
Zr874       O900   2.436       .  S
Zr874       O901   2.437       .  S
Zr874       O876   2.435       .  S
Zr874       O877   2.384       .  S
Zr874       O878   2.381       .  S
O875        H912   0.990       .  S
O876        H907   0.990       .  S
O876        H921   0.990       .  S
O878        H904   0.964       .  S
O879       Zr889   2.383       .  S
O880       Zr889   2.382       .  S
O880        H905   0.966       .  S
C881       C3470   1.485       .  S
C882       C3666   1.483       .  S
C883       C3373   1.483       .  S
O884        H920   0.990       .  S
O885        C887   1.282       .  A
O886        C887   1.286       .  A
C887       C4114   1.482       .  S
O888       Zr889   2.440       .  S
O888        H917   0.990       .  S
Zr889       O892   2.437       .  S
Zr889       O893   2.441       .  S
Zr889       O894   2.406       .  S
O890        C895   1.284       .  A
O891        H908   0.990       .  S
O891        H923   0.990       .  S
O892        H909   0.990       .  S
O893        H913   0.990       .  S
O893        H922   0.990       .  S
O894        C895   1.279       .  A
C895       C3442   1.478       .  S
O896        H915   0.990       .  S
O896        H919   0.990       .  S
O897        H911   0.990       .  S
O897        H918   0.990       .  S
O898        C902   1.287       .  A
O899        C902   1.284       .  A
O900        H910   0.990       .  S
O901        H914   0.990       .  S
C902       C3345   1.495       .  S
Zr925       O926   2.442       .  S
Zr925       O927   2.455       .  S
Zr925       O928   2.465       .  S
Zr925       O931   2.441       .  S
Zr925       O933   2.383       .  S
Zr925       O934   2.387       .  S
Zr925       O935   2.411       .  S
Zr925       O936   2.409       .  S
O926        H982   0.990       .  S
O926        H990   0.991       .  S
O927        C947   1.286       .  A
O928        C949   1.290       .  A
O929       Zr939   2.419       .  S
O929        C948   1.282       .  A
O930       Zr938   2.442       .  S
O930        C949   1.285       .  A
O931        C948   1.286       .  A
O932       Zr940   2.403       .  S
O932        C947   1.278       .  A
O933       Zr938   2.400       .  S
O933       Zr940   2.388       .  S
O934       Zr939   2.397       .  S
O934       Zr940   2.371       .  S
O934        H969   0.966       .  S
O935       Zr938   2.399       .  S
O935       Zr955   2.381       .  S
O935        H972   0.964       .  S
O936       Zr939   2.394       .  S
O936       Zr955   2.395       .  S
Zr937       O962   2.442       .  S
Zr937       O956   2.452       .  S
Zr937       O964   2.453       .  S
Zr937       O952   2.445       .  S
Zr937       O943   2.402       .  S
Zr937       O944   2.415       .  S
Zr937       O945   2.385       .  S
Zr937       O946   2.386       .  S
Zr938       O957   2.436       .  S
Zr938       O950   2.435       .  S
Zr938       O951   2.423       .  S
Zr938       O944   2.402       .  S
Zr938       O945   2.400       .  S
Zr939       O941   2.435       .  S
Zr939       O963   2.438       .  S
Zr939       O965   2.430       .  S
Zr939       O943   2.389       .  S
Zr939       O946   2.390       .  S
Zr940       O966   2.436       .  S
Zr940       O967   2.435       .  S
Zr940       O942   2.436       .  S
Zr940       O943   2.385       .  S
Zr940       O944   2.384       .  S
O941        H978   0.990       .  S
O942        H973   0.990       .  S
O942        H987   0.989       .  S
O944        H970   0.964       .  S
O945       Zr955   2.380       .  S
O946       Zr955   2.383       .  S
O946        H971   0.966       .  S
C947       C3289   1.475       .  S
C948       C3709   1.481       .  S
C949       C3386   1.490       .  S
O950        H986   0.990       .  S
O951        C953   1.283       .  A
O952        C953   1.286       .  A
C953       C4045   1.473       .  S
O954       Zr955   2.440       .  S
O954        H983   0.990       .  S
Zr955       O958   2.439       .  S
Zr955       O959   2.438       .  S
Zr955       O960   2.401       .  S
O956        C961   1.285       .  A
O957        H974   0.990       .  S
O957        H989   0.990       .  S
O958        H975   0.990       .  S
O959        H979   0.990       .  S
O959        H988   0.990       .  S
O960        C961   1.279       .  A
C961       C3317   1.489       .  S
O962        H981   0.989       .  S
O962        H985   0.991       .  S
O963        H977   0.990       .  S
O963        H984   0.990       .  S
O964        C968   1.286       .  A
O965        C968   1.285       .  A
O966        H976   0.990       .  S
O967        H980   0.990       .  S
C968       C3261   1.493       .  S
Zr991       O992   2.441       .  S
Zr991       O993   2.441       .  S
Zr991       O994   2.455       .  S
Zr991       O997   2.443       .  S
Zr991       O999   2.382       .  S
Zr991      O1000   2.388       .  S
Zr991      O1001   2.408       .  S
Zr991      O1002   2.402       .  S
O992       H1048   0.990       .  S
O992       H1056   0.990       .  S
O993       C1013   1.284   1_565  A
O994       C1015   1.287       .  A
O995      Zr1005   2.411       .  S
O995       C1014   1.282       .  A
O996      Zr1004   2.424       .  S
O996       C1015   1.284       .  A
O997       C1014   1.286       .  A
O998      Zr1006   2.408       .  S
O998       C1013   1.280   1_565  A
O999      Zr1004   2.401       .  S
O999      Zr1006   2.382       .  S
O1000     Zr1005   2.394       .  S
O1000     Zr1006   2.371       .  S
O1000      H1035   0.966       .  S
O1001     Zr1004   2.398       .  S
O1001     Zr1021   2.382       .  S
O1001      H1038   0.965       .  S
O1002     Zr1005   2.390       .  S
O1002     Zr1021   2.387       .  S
Zr1003     O1028   2.443       .  S
Zr1003     O1022   2.453       .  S
Zr1003     O1030   2.448       .  S
Zr1003     O1018   2.447       .  S
Zr1003     O1009   2.402       .  S
Zr1003     O1010   2.417       .  S
Zr1003     O1011   2.384       .  S
Zr1003     O1012   2.383       .  S
Zr1004     O1023   2.437       .  S
Zr1004     O1016   2.435       .  S
Zr1004     O1017   2.426       .  S
Zr1004     O1010   2.400       .  S
Zr1004     O1011   2.396       .  S
Zr1005     O1007   2.434       .  S
Zr1005     O1029   2.440       .  S
Zr1005     O1031   2.421       .  S
Zr1005     O1009   2.382       .  S
Zr1005     O1012   2.389       .  S
Zr1006     O1032   2.434       .  S
Zr1006     O1033   2.436       .  S
Zr1006     O1008   2.438       .  S
Zr1006     O1009   2.389       .  S
Zr1006     O1010   2.379       .  S
O1007      H1044   0.990       .  S
O1008      H1039   0.990       .  S
O1008      H1053   0.990       .  S
O1010      H1036   0.963       .  S
O1011     Zr1021   2.385       .  S
O1012     Zr1021   2.385       .  S
O1012      H1037   0.966       .  S
C1013      C3330   1.479       .  S
C1014      C3849   1.487       .  S
C1015      C3498   1.491       .  S
O1016      H1052   0.990       .  S
O1017      C1019   1.283       .  A
O1018      C1019   1.285       .  A
C1019      C3946   1.474       .  S
O1020     Zr1021   2.438       .  S
O1020      H1049   0.990       .  S
Zr1021     O1024   2.437       .  S
Zr1021     O1025   2.439       .  S
Zr1021     O1026   2.397       .  S
O1022      C1027   1.286       .  A
O1023      H1040   0.990       .  S
O1023      H1055   0.990       .  S
O1024      H1041   0.990       .  S
O1025      H1045   0.990       .  S
O1025      H1054   0.990       .  S
O1026      C1027   1.277       .  A
C1027      C3302   1.477       .  S
O1028      H1047   0.991       .  S
O1028      H1051   0.990       .  S
O1029      H1043   0.990       .  S
O1029      H1050   0.990       .  S
O1030      C1034   1.286       .  A
O1031      C1034   1.284       .  A
O1032      H1042   0.990       .  S
O1033      H1046   0.990       .  S
C1034      C3246   1.486       .  S
Zr1057     O1058   2.442       .  S
Zr1057     O1059   2.454       .  S
Zr1057     O1060   2.464       .  S
Zr1057     O1063   2.445       .  S
Zr1057     O1065   2.383       .  S
Zr1057     O1066   2.394       .  S
Zr1057     O1067   2.415       .  S
Zr1057     O1068   2.402       .  S
O1058      H1114   0.990       .  S
O1058      H1122   0.991       .  S
O1059      C1079   1.285       .  A
O1060      C1081   1.288       .  A
O1061     Zr1071   2.428       .  S
O1061      C1080   1.286       .  A
O1062     Zr1070   2.426       .  S
O1062      C1081   1.283       .  A
O1063      C1080   1.286       .  A
O1064     Zr1072   2.402       .  S
O1064      C1079   1.278       .  A
O1065     Zr1070   2.393       .  S
O1065     Zr1072   2.386       .  S
O1066     Zr1071   2.396       .  S
O1066     Zr1072   2.380       .  S
O1066      H1101   0.966       .  S
O1067     Zr1070   2.396       .  S
O1067     Zr1087   2.390       .  S
O1067      H1104   0.965       .  S
O1068     Zr1071   2.384       .  S
O1068     Zr1087   2.383       .  S
Zr1069     O1094   2.439       .  S
Zr1069     O1088   2.451       .  S
Zr1069     O1096   2.453       .  S
Zr1069     O1084   2.455       .  S
Zr1069     O1075   2.405       .  S
Zr1069     O1076   2.411       .  S
Zr1069     O1077   2.380       .  S
Zr1069     O1078   2.384       .  S
Zr1070     O1089   2.436       .  S
Zr1070     O1082   2.436       .  S
Zr1070     O1083   2.418       .  S
Zr1070     O1076   2.400       .  S
Zr1070     O1077   2.396       .  S
Zr1071     O1073   2.436       .  S
Zr1071     O1095   2.438       .  S
Zr1071     O1097   2.431       .  S
Zr1071     O1075   2.389       .  S
Zr1071     O1078   2.396       .  S
Zr1072     O1098   2.435       .  S
Zr1072     O1099   2.435       .  S
Zr1072     O1074   2.437       .  S
Zr1072     O1075   2.389       .  S
Zr1072     O1076   2.386       .  S
O1073      H1110   0.990       .  S
O1074      H1105   0.990       .  S
O1074      H1119   0.990       .  S
O1076      H1102   0.965       .  S
O1077     Zr1087   2.378       .  S
O1078     Zr1087   2.378       .  S
O1078      H1103   0.966       .  S
C1079      C3106   1.478   1_545  S
C1080      C3149   1.492       .  S
C1081      C4170   1.489       .  S
O1082      H1118   0.990       .  S
O1083      C1085   1.282       .  A
O1084      C1085   1.288       .  A
C1085      C3190   1.497       .  S
O1086     Zr1087   2.438       .  S
O1086      H1115   0.990       .  S
Zr1087     O1090   2.435       .  S
Zr1087     O1091   2.440       .  S
Zr1087     O1092   2.412       .  S
O1088      C1093   1.287       .  A
O1089      H1106   0.990       .  S
O1089      H1121   0.990       .  S
O1090      H1107   0.990       .  S
O1091      H1111   0.990       .  S
O1091      H1120   0.990       .  S
O1092      C1093   1.280       .  A
C1093      C3121   1.484       .  S
O1094      H1113   0.990       .  S
O1094      H1117   0.990       .  S
O1095      H1109   0.990       .  S
O1095      H1116   0.990       .  S
O1096      C1100   1.288       .  A
O1097      C1100   1.286       .  A
O1098      H1108   0.990       .  S
O1099      H1112   0.990       .  S
C1100      C3205   1.500       .  S
Zr1123     O1124   2.443       .  S
Zr1123     O1125   2.441       .  S
Zr1123     O1126   2.461       .  S
Zr1123     O1129   2.447       .  S
Zr1123     O1131   2.382       .  S
Zr1123     O1132   2.391       .  S
Zr1123     O1133   2.410       .  S
Zr1123     O1134   2.398       .  S
O1124      H1180   0.990       .  S
O1124      H1188   0.991       .  S
O1125      C1145   1.284       .  A
O1126      C1147   1.287       .  A
O1127     Zr1137   2.410       .  S
O1127      C1146   1.282       .  A
O1128     Zr1136   2.417       .  S
O1128      C1147   1.282       .  A
O1129      C1146   1.287       .  A
O1130     Zr1138   2.418       .  S
O1130      C1145   1.280       .  A
O1131     Zr1136   2.393       .  S
O1131     Zr1138   2.385       .  S
O1132     Zr1137   2.397       .  S
O1132     Zr1138   2.374       .  S
O1132      H1167   0.966       .  S
O1133     Zr1136   2.400       .  S
O1133     Zr1153   2.388       .  S
O1133      H1170   0.965       .  S
O1134     Zr1137   2.387       .  S
O1134     Zr1153   2.378       .  S
Zr1135     O1160   2.442       .  S
Zr1135     O1154   2.446       .  S
Zr1135     O1162   2.451       .  S
Zr1135     O1150   2.434       .  S
Zr1135     O1141   2.404       .  S
Zr1135     O1142   2.411       .  S
Zr1135     O1143   2.382       .  S
Zr1135     O1144   2.377       .  S
Zr1136     O1155   2.437       .  S
Zr1136     O1148   2.434       .  S
Zr1136     O1149   2.418       .  S
Zr1136     O1142   2.397       .  S
Zr1136     O1143   2.393       .  S
Zr1137     O1139   2.435       .  S
Zr1137     O1161   2.438       .  S
Zr1137     O1163   2.429       .  S
Zr1137     O1141   2.387       .  S
Zr1137     O1144   2.391       .  S
Zr1138     O1164   2.436       .  S
Zr1138     O1165   2.436       .  S
Zr1138     O1140   2.437       .  S
Zr1138     O1141   2.397       .  S
Zr1138     O1142   2.389       .  S
O1139      H1176   0.990       .  S
O1140      H1171   0.990       .  S
O1140      H1185   0.990       .  S
O1142      H1168   0.965       .  S
O1143     Zr1153   2.378       .  S
O1144     Zr1153   2.381       .  S
O1144      H1169   0.966       .  S
C1145      C3134   1.475       .  S
C1146      C3009   1.480       .  S
C1147      C4086   1.488       .  S
O1148      H1184   0.990       .  S
O1149      C1151   1.283       .  A
O1150      C1151   1.284       .  A
C1151      C3037   1.477       .  S
O1152     Zr1153   2.440       .  S
O1152      H1181   0.990       .  S
Zr1153     O1156   2.438       .  S
Zr1153     O1157   2.441       .  S
Zr1153     O1158   2.402       .  S
O1154      C1159   1.285       .  A
O1155      H1172   0.990       .  S
O1155      H1187   0.990       .  S
O1156      H1173   0.990       .  S
O1157      H1177   0.990       .  S
O1157      H1186   0.990       .  S
O1158      C1159   1.279       .  A
C1159      C3093   1.485       .  S
O1160      H1179   0.991       .  S
O1160      H1183   0.990       .  S
O1161      H1175   0.990       .  S
O1161      H1182   0.990       .  S
O1162      C1166   1.286       .  A
O1163      C1166   1.284       .  A
O1164      H1174   0.990       .  S
O1165      H1178   0.990       .  S
C1166      C3065   1.496       .  S
Zr1189     O1190   2.441       .  S
Zr1189     O1191   2.456       .  S
Zr1189     O1192   2.468       .  S
Zr1189     O1195   2.461       .  S
Zr1189     O1197   2.383       .  S
Zr1189     O1198   2.396       .  S
Zr1189     O1199   2.415       .  S
Zr1189     O1200   2.399       .  S
O1190      H1246   0.990       .  S
O1190      H1254   0.991       .  S
O1191      C1211   1.287       .  A
O1192      C1213   1.289       .  A
O1193     Zr1203   2.416       .  S
O1193      C1212   1.282       .  A
O1194     Zr1202   2.421       .  S
O1194      C1213   1.283       .  A
O1195      C1212   1.290       .  A
O1196     Zr1204   2.393       .  S
O1196      C1211   1.277       .  A
O1197     Zr1202   2.393       .  S
O1197     Zr1204   2.381       .  S
O1198     Zr1203   2.398       .  S
O1198     Zr1204   2.386       .  S
O1198      H1233   0.966       .  S
O1199     Zr1202   2.399       .  S
O1199     Zr1219   2.388       .  S
O1199      H1236   0.965       .  S
O1200     Zr1203   2.387       .  S
O1200     Zr1219   2.379       .  S
Zr1201     O1226   2.442       .  S
Zr1201     O1220   2.441       .  S
Zr1201     O1228   2.448       .  S
Zr1201     O1216   2.441       .  S
Zr1201     O1207   2.397       .  S
Zr1201     O1208   2.409       .  S
Zr1201     O1209   2.384       .  S
Zr1201     O1210   2.382       .  S
Zr1202     O1221   2.436       .  S
Zr1202     O1214   2.435       .  S
Zr1202     O1215   2.414       .  S
Zr1202     O1208   2.400       .  S
Zr1202     O1209   2.395       .  S
Zr1203     O1205   2.437       .  S
Zr1203     O1227   2.438       .  S
Zr1203     O1229   2.432       .  S
Zr1203     O1207   2.381       .  S
Zr1203     O1210   2.391       .  S
Zr1204     O1230   2.435       .  S
Zr1204     O1231   2.436       .  S
Zr1204     O1206   2.436       .  S
Zr1204     O1207   2.383       .  S
Zr1204     O1208   2.380       .  S
O1205      H1242   0.990       .  S
O1206      H1237   0.990       .  S
O1206      H1251   0.990       .  S
O1208      H1234   0.965       .  S
O1209     Zr1219   2.375       .  S
O1210     Zr1219   2.385       .  S
O1210      H1235   0.966       .  S
C1211      C2910   1.480       .  S
C1212      C2966   1.483       .  S
C1213      C3974   1.493       .  S
O1214      H1250   0.990       .  S
O1215      C1217   1.282       .  A
O1216      C1217   1.285       .  A
C1217      C2994   1.482       .  S
O1218     Zr1219   2.439       .  S
O1218      H1247   0.991       .  S
Zr1219     O1222   2.439       .  S
Zr1219     O1223   2.440       .  S
Zr1219     O1224   2.394       .  S
O1220      C1225   1.285       .  A
O1221      H1238   0.990       .  S
O1221      H1253   0.990       .  S
O1222      H1239   0.990       .  S
O1223      H1243   0.990       .  S
O1223      H1252   0.989       .  S
O1224      C1225   1.277       .  A
C1225      C2925   1.476       .  S
O1226      H1245   0.991       .  S
O1226      H1249   0.990       .  S
O1227      H1241   0.990       .  S
O1227      H1248   0.990       .  S
O1228      C1232   1.288       .  A
O1229      C1232   1.285       .  A
O1230      H1240   0.990       .  S
O1231      H1244   0.990       .  S
C1232      C3218   1.497       .  S
Zr1255     O1256   2.443       .  S
Zr1255     O1257   2.447       .  S
Zr1255     O1258   2.468       .  S
Zr1255     O1261   2.451       .  S
Zr1255     O1263   2.383       .  S
Zr1255     O1264   2.395       .  S
Zr1255     O1265   2.411       .  S
Zr1255     O1266   2.403       .  S
O1256      H1312   0.990       .  S
O1256      H1320   0.991       .  S
O1257      C1277   1.285       .  A
O1258      C1279   1.289       .  A
O1259     Zr1269   2.421       .  S
O1259      C1278   1.284       .  A
O1260     Zr1268   2.410       .  S
O1260      C1279   1.280       .  A
O1261      C1278   1.288       .  A
O1262     Zr1270   2.392       .  S
O1262      C1277   1.277       .  A
O1263     Zr1268   2.391       .  S
O1263     Zr1270   2.383       .  S
O1264     Zr1269   2.392       .  S
O1264     Zr1270   2.380       .  S
O1264      H1299   0.966       .  S
O1265     Zr1268   2.395       .  S
O1265     Zr1285   2.390       .  S
O1265      H1302   0.965       .  S
O1266     Zr1269   2.392       .  S
O1266     Zr1285   2.383       .  S
Zr1267     O1292   2.442       .  S
Zr1267     O1286   2.448       .  S
Zr1267     O1294   2.445       .  S
Zr1267     O1282   2.437       .  S
Zr1267     O1273   2.402       .  S
Zr1267     O1274   2.406       .  S
Zr1267     O1275   2.380       .  S
Zr1267     O1276   2.380       .  S
Zr1268     O1287   2.434       .  S
Zr1268     O1280   2.436       .  S
Zr1268     O1281   2.412       .  S
Zr1268     O1274   2.391       .  S
Zr1268     O1275   2.387       .  S
Zr1269     O1271   2.435       .  S
Zr1269     O1293   2.435       .  S
Zr1269     O1295   2.431       .  S
Zr1269     O1273   2.389       .  S
Zr1269     O1276   2.391       .  S
Zr1270     O1296   2.435       .  S
Zr1270     O1297   2.437       .  S
Zr1270     O1272   2.437       .  S
Zr1270     O1273   2.388       .  S
Zr1270     O1274   2.381       .  S
O1271      H1308   0.990       .  S
O1272      H1303   0.990       .  S
O1272      H1317   0.990       .  S
O1274      H1300   0.965       .  S
O1275     Zr1285   2.377       .  S
O1276     Zr1285   2.379       .  S
O1276      H1301   0.966       .  S
C1277      C2938   1.477       .  S
C1278      C2841   1.489       .  S
C1279      C3918   1.491       .  S
O1280      H1316   0.990       .  S
O1281      C1283   1.282       .  A
O1282      C1283   1.286       .  A
C1283      C2869   1.483       .  S
O1284     Zr1285   2.439       .  S
O1284      H1313   0.990       .  S
Zr1285     O1288   2.437       .  S
Zr1285     O1289   2.439       .  S
Zr1285     O1290   2.407       .  S
O1286      C1291   1.286       .  A
O1287      H1304   0.990       .  S
O1287      H1319   0.990       .  S
O1288      H1305   0.990       .  S
O1289      H1309   0.990       .  S
O1289      H1318   0.989       .  S
O1290      C1291   1.281       .  A
C1291      C2897   1.494       .  S
O1292      H1311   0.990       .  S
O1292      H1315   0.991       .  S
O1293      H1307   0.990       .  S
O1293      H1314   0.990       .  S
O1294      C1298   1.286       .  A
O1295      C1298   1.285       .  A
O1296      H1306   0.990       .  S
O1297      H1310   0.990       .  S
C1298      C3078   1.497       .  S
Zr1321     O1322   2.443       .  S
Zr1321     O1323   2.451       .  S
Zr1321     O1324   2.457       .  S
Zr1321     O1327   2.453       .  S
Zr1321     O1329   2.382       .  S
Zr1321     O1330   2.390       .  S
Zr1321     O1331   2.420       .  S
Zr1321     O1332   2.401       .  S
O1322      H1378   0.990       .  S
O1322      H1386   0.990       .  S
O1323      C1343   1.285       .  A
O1324      C1345   1.287       .  A
O1325     Zr1335   2.417       .  S
O1325      C1344   1.283       .  A
O1326     Zr1334   2.425       .  S
O1326      C1345   1.283       .  A
O1327      C1344   1.288       .  A
O1328     Zr1336   2.400       .  S
O1328      C1343   1.278       .  A
O1329     Zr1334   2.390       .  S
O1329     Zr1336   2.383       .  S
O1330     Zr1335   2.392       .  S
O1330     Zr1336   2.384       .  S
O1330      H1365   0.966       .  S
O1331     Zr1334   2.400       .  S
O1331     Zr1351   2.388       .  S
O1331      H1368   0.965       .  S
O1332     Zr1335   2.385       .  S
O1332     Zr1351   2.386       .  S
Zr1333     O1358   2.441       .  S
Zr1333     O1352   2.438       .  S
Zr1333     O1360   2.465       .  S
Zr1333     O1348   2.451       .  S
Zr1333     O1339   2.396       .  S
Zr1333     O1340   2.409       .  S
Zr1333     O1341   2.385       .  S
Zr1333     O1342   2.383       .  S
Zr1334     O1353   2.437       .  S
Zr1334     O1346   2.434       .  S
Zr1334     O1347   2.416       .  S
Zr1334     O1340   2.398       .  S
Zr1334     O1341   2.397       .  S
Zr1335     O1337   2.435       .  S
Zr1335     O1359   2.436       .  S
Zr1335     O1361   2.416       .  S
Zr1335     O1339   2.386       .  S
Zr1335     O1342   2.390       .  S
Zr1336     O1362   2.435       .  S
Zr1336     O1363   2.435       .  S
Zr1336     O1338   2.438       .  S
Zr1336     O1339   2.384       .  S
Zr1336     O1340   2.386       .  S
O1337      H1374   0.990       .  S
O1338      H1369   0.990       .  S
O1338      H1383   0.990       .  S
O1340      H1366   0.965       .  S
O1341     Zr1351   2.375       .  S
O1342     Zr1351   2.379       .  S
O1342      H1367   0.966       .  S
C1343      C2729   1.486       .  S
C1344      C2785   1.482       .  S
C1345      C4646   1.481       .  S
O1346      H1382   0.990       .  S
O1347      C1349   1.281       .  A
O1348      C1349   1.287       .  A
C1349      C3177   1.488       .  S
O1350     Zr1351   2.439       .  S
O1350      H1379   0.991       .  S
Zr1351     O1354   2.436       .  S
Zr1351     O1355   2.440       .  S
Zr1351     O1356   2.409       .  S
O1352      C1357   1.285       .  A
O1353      H1370   0.990       .  S
O1353      H1385   0.990       .  S
O1354      H1371   0.990       .  S
O1355      H1375   0.990       .  S
O1355      H1384   0.990       .  S
O1356      C1357   1.280       .  A
C1357      C2757   1.487       .  S
O1358      H1377   0.991       .  S
O1358      H1381   0.990       .  S
O1359      H1373   0.990       .  S
O1359      H1380   0.990       .  S
O1360      C1364   1.291       .  A
O1361      C1364   1.283       .  A
O1362      H1372   0.990       .  S
O1363      H1376   0.990       .  S
C1364      C2813   1.503       .  S
Zr1387     O1388   2.440       .  S
Zr1387     O1389   2.449       .  S
Zr1387     O1390   2.463       .  S
Zr1387     O1393   2.443       .  S
Zr1387     O1395   2.380       .  S
Zr1387     O1396   2.393       .  S
Zr1387     O1397   2.413       .  S
Zr1387     O1398   2.401       .  S
O1388      H1444   0.990       .  S
O1388      H1452   0.990       .  S
O1389      C1409   1.286       .  A
O1390      C1411   1.288       .  A
O1391     Zr1401   2.403       .  S
O1391      C1410   1.279       .  A
O1392     Zr1400   2.421       .  S
O1392      C1411   1.283       .  A
O1393      C1410   1.287       .  A
O1394     Zr1402   2.396       .  S
O1394      C1409   1.277       .  A
O1395     Zr1400   2.393       .  S
O1395     Zr1402   2.384       .  S
O1396     Zr1401   2.393       .  S
O1396     Zr1402   2.378       .  S
O1396      H1431   0.966       .  S
O1397     Zr1400   2.397       .  S
O1397     Zr1417   2.397       .  S
O1397      H1434   0.965       .  S
O1398     Zr1401   2.385       .  S
O1398     Zr1417   2.379       .  S
Zr1399     O1424   2.442       .  S
Zr1399     O1418   2.442       .  S
Zr1399     O1426   2.442       .  S
Zr1399     O1414   2.430       .  S
Zr1399     O1405   2.400       .  S
Zr1399     O1406   2.406       .  S
Zr1399     O1407   2.383       .  S
Zr1399     O1408   2.382       .  S
Zr1400     O1419   2.435       .  S
Zr1400     O1412   2.435       .  S
Zr1400     O1413   2.425       .  S
Zr1400     O1406   2.394       .  S
Zr1400     O1407   2.393       .  S
Zr1401     O1403   2.436       .  S
Zr1401     O1425   2.438       .  S
Zr1401     O1427   2.414       .  S
Zr1401     O1405   2.384       .  S
Zr1401     O1408   2.389       .  S
Zr1402     O1428   2.435       .  S
Zr1402     O1429   2.435       .  S
Zr1402     O1404   2.436       .  S
Zr1402     O1405   2.387       .  S
Zr1402     O1406   2.380       .  S
O1403      H1440   0.990       .  S
O1404      H1435   0.990       .  S
O1404      H1449   0.990       .  S
O1406      H1432   0.965       .  S
O1407     Zr1417   2.379       .  S
O1408     Zr1417   2.381       .  S
O1408      H1433   0.966       .  S
C1409      C2770   1.478       .  S
C1410      C2673   1.483       .  S
C1411      C4534   1.499       .  S
O1412      H1448   0.990       .  S
O1413      C1415   1.284       .  A
O1414      C1415   1.284       .  A
C1415      C3050   1.484       .  S
O1416     Zr1417   2.439       .  S
O1416      H1445   0.990       .  S
Zr1417     O1420   2.437       .  S
Zr1417     O1421   2.439       .  S
Zr1417     O1422   2.413       .  S
O1418      C1423   1.286       .  A
O1419      H1436   0.990       .  S
O1419      H1451   0.990       .  S
O1420      H1437   0.990       .  S
O1421      H1441   0.990       .  S
O1421      H1450   0.990       .  S
O1422      C1423   1.281       .  A
C1423      C2742   1.482       .  S
O1424      H1443   0.990       .  S
O1424      H1447   0.991       .  S
O1425      H1439   0.990       .  S
O1425      H1446   0.990       .  S
O1426      C1430   1.284       .  A
O1427      C1430   1.282       .  A
O1428      H1438   0.990       .  S
O1429      H1442   0.990       .  S
C1430      C2701   1.488       .  S
Zr1453     O1454   2.440       .  S
Zr1453     O1455   2.441       .  S
Zr1453     O1456   2.478       .  S
Zr1453     O1459   2.441       .  S
Zr1453     O1461   2.378       .  S
Zr1453     O1462   2.395       .  S
Zr1453     O1463   2.406       .  S
Zr1453     O1464   2.401       .  S
O1454      H1510   0.990       .  S
O1454      H1518   0.990       .  S
O1455      C1475   1.283       .  A
O1456      C1477   1.291       .  A
O1457     Zr1467   2.411       .  S
O1457      C1476   1.281       .  A
O1458     Zr1466   2.418       .  S
O1458      C1477   1.282       .  A
O1459      C1476   1.287       .  A
O1460     Zr1468   2.409       .  S
O1460      C1475   1.280       .  A
O1461     Zr1466   2.395       .  S
O1461     Zr1468   2.384       .  S
O1462     Zr1467   2.396       .  S
O1462     Zr1468   2.374       .  S
O1462      H1497   0.966       .  S
O1463     Zr1466   2.396       .  S
O1463     Zr1483   2.393       .  S
O1463      H1500   0.965       .  S
O1464     Zr1467   2.391       .  S
O1464     Zr1483   2.379       .  S
Zr1465     O1490   2.442       .  S
Zr1465     O1484   2.448       .  S
Zr1465     O1492   2.462       .  S
Zr1465     O1480   2.446       .  S
Zr1465     O1471   2.402       .  S
Zr1465     O1472   2.414       .  S
Zr1465     O1473   2.386       .  S
Zr1465     O1474   2.385       .  S
Zr1466     O1485   2.436       .  S
Zr1466     O1478   2.435       .  S
Zr1466     O1479   2.414       .  S
Zr1466     O1472   2.402       .  S
Zr1466     O1473   2.394       .  S
Zr1467     O1469   2.436       .  S
Zr1467     O1491   2.438       .  S
Zr1467     O1493   2.428       .  S
Zr1467     O1471   2.386       .  S
Zr1467     O1474   2.392       .  S
Zr1468     O1494   2.436       .  S
Zr1468     O1495   2.437       .  S
Zr1468     O1470   2.435       .  S
Zr1468     O1471   2.391       .  S
Zr1468     O1472   2.385       .  S
O1469      H1506   0.990       .  S
O1470      H1501   0.990       .  S
O1470      H1515   0.990       .  S
O1472      H1498   0.965       .  S
O1473     Zr1483   2.380       .  S
O1474     Zr1483   2.385       .  S
O1474      H1499   0.966       .  S
C1475      C2589   1.480   1_545  S
C1476      C2645   1.483       .  S
C1477      C4381   1.498       .  S
O1478      H1514   0.990       .  S
O1479      C1481   1.282       .  A
O1480      C1481   1.286       .  A
C1481      C2981   1.476       .  S
O1482     Zr1483   2.439       .  S
O1482      H1511   0.990       .  S
Zr1483     O1486   2.438       .  S
Zr1483     O1487   2.438       .  S
Zr1483     O1488   2.404       .  S
O1484      C1489   1.286       .  A
O1485      H1502   0.990       .  S
O1485      H1517   0.990       .  S
O1486      H1503   0.990       .  S
O1487      H1507   0.990       .  S
O1487      H1516   0.990       .  S
O1488      C1489   1.279       .  A
C1489      C2617   1.483       .  S
O1490      H1509   0.990       .  S
O1490      H1513   0.990       .  S
O1491      H1505   0.990       .  S
O1491      H1512   0.990       .  S
O1492      C1496   1.289       .  A
O1493      C1496   1.283       .  A
O1494      H1504   0.990       .  S
O1495      H1508   0.990       .  S
C1496      C2826   1.502       .  S
Zr1519     O1520   2.443       .  S
Zr1519     O1521   2.463       .  S
Zr1519     O1522   2.462       .  S
Zr1519     O1525   2.449       .  S
Zr1519     O1527   2.383       .  S
Zr1519     O1528   2.391       .  S
Zr1519     O1529   2.418       .  S
Zr1519     O1530   2.404       .  S
O1520      H1576   0.990       .  S
O1520      H1584   0.991       .  S
O1521      C1541   1.288       .  A
O1522      C1543   1.288       .  A
O1523     Zr1533   2.416       .  S
O1523      C1542   1.281       .  A
O1524     Zr1532   2.420       .  S
O1524      C1543   1.281       .  A
O1525      C1542   1.287       .  A
O1526     Zr1534   2.386       .  S
O1526      C1541   1.276       .  A
O1527     Zr1532   2.394       .  S
O1527     Zr1534   2.386       .  S
O1528     Zr1533   2.391       .  S
O1528     Zr1534   2.384       .  S
O1528      H1563   0.966       .  S
O1529     Zr1532   2.395       .  S
O1529     Zr1549   2.397       .  S
O1529      H1566   0.965       .  S
O1530     Zr1533   2.384       .  S
O1530     Zr1549   2.392       .  S
Zr1531     O1556   2.442       .  S
Zr1531     O1550   2.442       .  S
Zr1531     O1558   2.448       .  S
Zr1531     O1546   2.429       .  S
Zr1531     O1537   2.397       .  S
Zr1531     O1538   2.408       .  S
Zr1531     O1539   2.385       .  S
Zr1531     O1540   2.379       .  S
Zr1532     O1551   2.436       .  S
Zr1532     O1544   2.436       .  S
Zr1532     O1545   2.416       .  S
Zr1532     O1538   2.397       .  S
Zr1532     O1539   2.395       .  S
Zr1533     O1535   2.435       .  S
Zr1533     O1557   2.440       .  S
Zr1533     O1559   2.412       .  S
Zr1533     O1537   2.390       .  S
Zr1533     O1540   2.394       .  S
Zr1534     O1560   2.434       .  S
Zr1534     O1561   2.436       .  S
Zr1534     O1536   2.437       .  S
Zr1534     O1537   2.384       .  S
Zr1534     O1538   2.376       .  S
O1535      H1572   0.990       .  S
O1536      H1567   0.990       .  S
O1536      H1581   0.990       .  S
O1538      H1564   0.965       .  S
O1539     Zr1549   2.374       .  S
O1540     Zr1549   2.379       .  S
O1540      H1565   0.966       .  S
C1541      C2630   1.488       .  S
C1542      C2561   1.486       .  S
C1543      C4310   1.490       .  S
O1544      H1580   0.990       .  S
O1545      C1547   1.283       .  A
O1546      C1547   1.284       .  A
C1547      C2882   1.472       .  S
O1548     Zr1549   2.438       .  S
O1548      H1577   0.990       .  S
Zr1549     O1552   2.437       .  S
Zr1549     O1553   2.439       .  S
Zr1549     O1554   2.423       .  S
O1550      C1555   1.285       .  A
O1551      H1568   0.990       .  S
O1551      H1583   0.990       .  S
O1552      H1569   0.990       .  S
O1553      H1573   0.990       .  S
O1553      H1582   0.990       .  S
O1554      C1555   1.282       .  A
C1555      C2602   1.481       .  S
O1556      H1575   0.990       .  S
O1556      H1579   0.991       .  S
O1557      H1571   0.990       .  S
O1557      H1578   0.990       .  S
O1558      C1562   1.286       .  A
O1559      C1562   1.281       .  A
O1560      H1570   0.990       .  S
O1561      H1574   0.990       .  S
C1562      C2714   1.485       .  S
Zr1585     O1586   2.443       .  S
Zr1585     O1587   2.450       .  S
Zr1585     O1588   2.463       .  S
Zr1585     O1591   2.454       .  S
Zr1585     O1593   2.385       .  S
Zr1585     O1594   2.395       .  S
Zr1585     O1595   2.413       .  S
Zr1585     O1596   2.397       .  S
O1586      H1642   0.990       .  S
O1586      H1650   0.991       .  S
O1587      C1607   1.286       .  A
O1588      C1609   1.288       .  A
O1589     Zr1599   2.413       .  S
O1589      C1608   1.282       .  A
O1590     Zr1598   2.425       .  S
O1590      C1609   1.283       .  A
O1591      C1608   1.288       .  A
O1592     Zr1600   2.402       .  S
O1592      C1607   1.277       .  A
O1593     Zr1598   2.395       .  S
O1593     Zr1600   2.382       .  S
O1594     Zr1599   2.398       .  S
O1594     Zr1600   2.384       .  S
O1594      H1629   0.966       .  S
O1595     Zr1598   2.401       .  S
O1595     Zr1615   2.394   1_545  S
O1595      H1632   0.965       .  S
O1596     Zr1599   2.388       .  S
O1596     Zr1615   2.379   1_545  S
Zr1597     O1622   2.441   1_545  S
Zr1597     O1616   2.447   1_545  S
Zr1597     O1624   2.454   1_545  S
Zr1597     O1612   2.444   1_545  S
Zr1597     O1603   2.402       .  S
Zr1597     O1604   2.415       .  S
Zr1597     O1605   2.382   1_545  S
Zr1597     O1606   2.379       .  S
Zr1598     O1617   2.437       .  S
Zr1598     O1610   2.434       .  S
Zr1598     O1611   2.428       .  S
Zr1598     O1604   2.401       .  S
Zr1598     O1605   2.394   1_545  S
Zr1599     O1601   2.436       .  S
Zr1599     O1623   2.437       .  S
Zr1599     O1625   2.426       .  S
Zr1599     O1603   2.383       .  S
Zr1599     O1606   2.392       .  S
Zr1600     O1626   2.435       .  S
Zr1600     O1627   2.435       .  S
Zr1600     O1602   2.439       .  S
Zr1600     O1603   2.389       .  S
Zr1600     O1604   2.384       .  S
O1601      H1638   0.990       .  S
O1602      H1633   0.990       .  S
O1602      H1647   0.990       .  S
O1604      H1630   0.965       .  S
O1605     Zr1615   2.376       .  S
O1606     Zr1615   2.382   1_545  S
O1606      H1631   0.966   1_545  S
C1607      C2477   1.474       .  S
C1608      C2658   1.476       .  S
C1609      C3778   1.487       .  S
O1610      H1646   0.990       .  S
O1611      C1613   1.284       .  A
O1612      C1613   1.286   1_565  A
C1613      C2505   1.483   1_545  S
O1614     Zr1615   2.438       .  S
O1614      H1643   0.991       .  S
Zr1615     O1618   2.436       .  S
Zr1615     O1619   2.440       .  S
Zr1615     O1620   2.400       .  S
O1616      C1621   1.286       .  A
O1617      H1634   0.990       .  S
O1617      H1649   0.990       .  S
O1618      H1635   0.990       .  S
O1619      H1639   0.990       .  S
O1619      H1648   0.990       .  S
O1620      C1621   1.278       .  A
C1621      C2449   1.481       .  S
O1622      H1641   0.990   1_565  S
O1622      H1645   0.990       .  S
O1623      H1637   0.990       .  S
O1623      H1644   0.990       .  S
O1624      C1628   1.288   1_565  A
O1625      C1628   1.284       .  A
O1626      H1636   0.990       .  S
O1627      H1640   0.990       .  S
C1628      C2533   1.497       .  S
Zr1651     O1652   2.442       .  S
Zr1651     O1653   2.458       .  S
Zr1651     O1654   2.474       .  S
Zr1651     O1657   2.452       .  S
Zr1651     O1659   2.384       .  S
Zr1651     O1660   2.395       .  S
Zr1651     O1661   2.414       .  S
Zr1651     O1662   2.404       .  S
O1652      H1708   0.990       .  S
O1652      H1716   0.991       .  S
O1653      C1673   1.287       .  A
O1654      C1675   1.290       .  A
O1655     Zr1665   2.421       .  S
O1655      C1674   1.285       .  A
O1656     Zr1664   2.418       .  S
O1656      C1675   1.282       .  A
O1657      C1674   1.288       .  A
O1658     Zr1666   2.396       .  S
O1658      C1673   1.277       .  A
O1659     Zr1664   2.400       .  S
O1659     Zr1666   2.388       .  S
O1660     Zr1665   2.398       .  S
O1660     Zr1666   2.376       .  S
O1660      H1695   0.966       .  S
O1661     Zr1664   2.397       .  S
O1661     Zr1681   2.387       .  S
O1661      H1698   0.964       .  S
O1662     Zr1665   2.391       .  S
O1662     Zr1681   2.382       .  S
Zr1663     O1688   2.440       .  S
Zr1663     O1682   2.444       .  S
Zr1663     O1690   2.451       .  S
Zr1663     O1678   2.442       .  S
Zr1663     O1669   2.402       .  S
Zr1663     O1670   2.406       .  S
Zr1663     O1671   2.382       .  S
Zr1663     O1672   2.379       .  S
Zr1664     O1683   2.436       .  S
Zr1664     O1676   2.435       .  S
Zr1664     O1677   2.416       .  S
Zr1664     O1670   2.398       .  S
Zr1664     O1671   2.389       .  S
Zr1665     O1667   2.436       .  S
Zr1665     O1689   2.436       .  S
Zr1665     O1691   2.440       .  S
Zr1665     O1669   2.391       .  S
Zr1665     O1672   2.392       .  S
Zr1666     O1692   2.436       .  S
Zr1666     O1693   2.436       .  S
Zr1666     O1668   2.437       .  S
Zr1666     O1669   2.393       .  S
Zr1666     O1670   2.377       .  S
O1667      H1704   0.990       .  S
O1668      H1699   0.990       .  S
O1668      H1713   0.990       .  S
O1670      H1696   0.965       .  S
O1671     Zr1681   2.375       .  S
O1672     Zr1681   2.379       .  S
O1672      H1697   0.966       .  S
C1673      C2462   1.490       .  S
C1674      C2574   1.479       .  S
C1675      C3694   1.487       .  S
O1676      H1712   0.990       .  S
O1677      C1679   1.281       .  A
O1678      C1679   1.287       .  A
C1679      C2393   1.490       .  S
O1680     Zr1681   2.439       .  S
O1680      H1709   0.991       .  S
Zr1681     O1684   2.439       .  S
Zr1681     O1685   2.438       .  S
Zr1681     O1686   2.402       .  S
O1682      C1687   1.285       .  A
O1683      H1700   0.990       .  S
O1683      H1715   0.990       .  S
O1684      H1701   0.990       .  S
O1685      H1705   0.990       .  S
O1685      H1714   0.990       .  S
O1686      C1687   1.278       .  A
C1687      C2490   1.477       .  S
O1688      H1707   0.990       .  S
O1688      H1711   0.990       .  S
O1689      H1703   0.990       .  S
O1689      H1710   0.990       .  S
O1690      C1694   1.287       .  A
O1691      C1694   1.287       .  A
O1692      H1702   0.990       .  S
O1693      H1706   0.990       .  S
C1694      C2421   1.498       .  S
Zr1717     O1718   2.442       .  S
Zr1717     O1719   2.446       .  S
Zr1717     O1720   2.449       .  S
Zr1717     O1723   2.435       .  S
Zr1717     O1725   2.379       .  S
Zr1717     O1726   2.384       .  S
Zr1717     O1727   2.411       .  S
Zr1717     O1728   2.406       .  S
O1718      H1774   0.990       .  S
O1718      H1782   0.990       .  S
O1719      C1739   1.284       .  A
O1720      C1741   1.286       .  A
O1721     Zr1731   2.418       .  S
O1721      C1740   1.283       .  A
O1722     Zr1730   2.434       .  S
O1722      C1741   1.285       .  A
O1723      C1740   1.285       .  A
O1724     Zr1732   2.419       .  S
O1724      C1739   1.282       .  A
O1725     Zr1730   2.392       .  S
O1725     Zr1732   2.379       .  S
O1726     Zr1731   2.398       .  S
O1726     Zr1732   2.375       .  S
O1726      H1761   0.966       .  S
O1727     Zr1730   2.396       .  S
O1727     Zr1747   2.383       .  S
O1727      H1764   0.965       .  S
O1728     Zr1731   2.391       .  S
O1728     Zr1747   2.395       .  S
Zr1729     O1754   2.441       .  S
Zr1729     O1748   2.447       .  S
Zr1729     O1756   2.463       .  S
Zr1729     O1744   2.464       .  S
Zr1729     O1735   2.401       .  S
Zr1729     O1736   2.413       .  S
Zr1729     O1737   2.385       .  S
Zr1729     O1738   2.386       .  S
Zr1730     O1749   2.436       .  S
Zr1730     O1742   2.436       .  S
Zr1730     O1743   2.411       .  S
Zr1730     O1736   2.406       .  S
Zr1730     O1737   2.396       .  S
Zr1731     O1733   2.435       .  S
Zr1731     O1755   2.435       .  S
Zr1731     O1757   2.430       .  S
Zr1731     O1735   2.386       .  S
Zr1731     O1738   2.392       .  S
Zr1732     O1758   2.436       .  S
Zr1732     O1759   2.435       .  S
Zr1732     O1734   2.437       .  S
Zr1732     O1735   2.391       .  S
Zr1732     O1736   2.389       .  S
O1733      H1770   0.990       .  S
O1734      H1765   0.990       .  S
O1734      H1779   0.990       .  S
O1736      H1762   0.965       .  S
O1737     Zr1747   2.377       .  S
O1738     Zr1747   2.383       .  S
O1738      H1763   0.966       .  S
C1739      C2337   1.489       .  S
C1740      C2798   1.482       .  S
C1741      C3582   1.493       .  S
O1742      H1778   0.990       .  S
O1743      C1745   1.281       .  A
O1744      C1745   1.289       .  A
C1745      C2365   1.481       .  S
O1746     Zr1747   2.440       .  S
O1746      H1775   0.990       .  S
Zr1747     O1750   2.438       .  S
Zr1747     O1751   2.438       .  S
Zr1747     O1752   2.412       .  S
O1748      C1753   1.286       .  A
O1749      H1766   0.990       .  S
O1749      H1781   0.990       .  S
O1750      H1767   0.990       .  S
O1751      H1771   0.990       .  S
O1751      H1780   0.990       .  S
O1752      C1753   1.280       .  A
C1753      C2309   1.475       .  S
O1754      H1773   0.990       .  S
O1754      H1777   0.990       .  S
O1755      H1769   0.990       .  S
O1755      H1776   0.990       .  S
O1756      C1760   1.291       .  A
O1757      C1760   1.284       .  A
O1758      H1768   0.990       .  S
O1759      H1772   0.990       .  S
C1760      C2434   1.502       .  S
Zr1783     O1784   2.442       .  S
Zr1783     O1785   2.452       .  S
Zr1783     O1786   2.455       .  S
Zr1783     O1789   2.448       .  S
Zr1783     O1791   2.378       .  S
Zr1783     O1792   2.390       .  S
Zr1783     O1793   2.416       .  S
Zr1783     O1794   2.404       .  S
O1784      H1840   0.990       .  S
O1784      H1848   0.991       .  S
O1785      C1805   1.285       .  A
O1786      C1807   1.287       .  A
O1787     Zr1797   2.407       .  S
O1787      C1806   1.281       .  A
O1788     Zr1796   2.434       .  S
O1788      C1807   1.284       .  A
O1789      C1806   1.287       .  A
O1790     Zr1798   2.407       .  S
O1790      C1805   1.279       .  A
O1791     Zr1796   2.390       .  S
O1791     Zr1798   2.380       .  S
O1792     Zr1797   2.397       .  S
O1792     Zr1798   2.379       .  S
O1792      H1827   0.966       .  S
O1793     Zr1796   2.398       .  S
O1793     Zr1813   2.391       .  S
O1793      H1830   0.965       .  S
O1794     Zr1797   2.390       .  S
O1794     Zr1813   2.386       .  S
Zr1795     O1820   2.441       .  S
Zr1795     O1814   2.445       .  S
Zr1795     O1822   2.452       .  S
Zr1795     O1810   2.443       .  S
Zr1795     O1801   2.399       .  S
Zr1795     O1802   2.413       .  S
Zr1795     O1803   2.384       .  S
Zr1795     O1804   2.380       .  S
Zr1796     O1815   2.436       .  S
Zr1796     O1808   2.436       .  S
Zr1796     O1809   2.417       .  S
Zr1796     O1802   2.404       .  S
Zr1796     O1803   2.396       .  S
Zr1797     O1799   2.435       .  S
Zr1797     O1821   2.438       .  S
Zr1797     O1823   2.427       .  S
Zr1797     O1801   2.383       .  S
Zr1797     O1804   2.395       .  S
Zr1798     O1824   2.435       .  S
Zr1798     O1825   2.435       .  S
Zr1798     O1800   2.437       .  S
Zr1798     O1801   2.393       .  S
Zr1798     O1802   2.387       .  S
O1799      H1836   0.990       .  S
O1800      H1831   0.990       .  S
O1800      H1845   0.990       .  S
O1802      H1828   0.965       .  S
O1803     Zr1813   2.376       .  S
O1804     Zr1813   2.383       .  S
O1804      H1829   0.966       .  S
C1805      C2322   1.487       .  S
C1806      C2686   1.483       .  S
C1807      C3526   1.488       .  S
O1808      H1844   0.990       .  S
O1809      C1811   1.283       .  A
O1810      C1811   1.285       .  A
C1811      C2281   1.481       .  S
O1812     Zr1813   2.439       .  S
O1812      H1841   0.990       .  S
Zr1813     O1816   2.437       .  S
Zr1813     O1817   2.439       .  S
Zr1813     O1818   2.414   1_565  S
O1814      C1819   1.285   1_565  A
O1815      H1832   0.990       .  S
O1815      H1847   0.990       .  S
O1816      H1833   0.990       .  S
O1817      H1837   0.990       .  S
O1817      H1846   0.990       .  S
O1818      C1819   1.280       .  A
C1819      C2350   1.475       .  S
O1820      H1839   0.990       .  S
O1820      H1843   0.990       .  S
O1821      H1835   0.990       .  S
O1821      H1842   0.990       .  S
O1822      C1826   1.288       .  A
O1823      C1826   1.283       .  A
O1824      H1834   0.990       .  S
O1825      H1838   0.990       .  S
C1826      C2546   1.496       .  S
Zr1849     O1850   2.442       .  S
Zr1849     O1851   2.444       .  S
Zr1849     O1852   2.470       .  S
Zr1849     O1855   2.455       .  S
Zr1849     O1857   2.381       .  S
Zr1849     O1858   2.393       .  S
Zr1849     O1859   2.411       .  S
Zr1849     O1860   2.402       .  S
O1850      H1906   0.990       .  S
O1850      H1914   0.990       .  S
O1851      C1871   1.285       .  A
O1852      C1873   1.290       .  A
O1853     Zr1863   2.404       .  S
O1853      C1872   1.280       .  A
O1854     Zr1862   2.427       .  S
O1854      C1873   1.284       .  A
O1855      C1872   1.289       .  A
O1856     Zr1864   2.406       .  S
O1856      C1871   1.279       .  A
O1857     Zr1862   2.392       .  S
O1857     Zr1864   2.380       .  S
O1858     Zr1863   2.396       .  S
O1858     Zr1864   2.379       .  S
O1858      H1893   0.966       .  S
O1859     Zr1862   2.397       .  S
O1859     Zr1879   2.383   1_545  S
O1859      H1896   0.964       .  S
O1860     Zr1863   2.392       .  S
O1860     Zr1879   2.385   1_545  S
Zr1861     O1886   2.442       .  S
Zr1861     O1880   2.451       .  S
Zr1861     O1888   2.452       .  S
Zr1861     O1876   2.443       .  S
Zr1861     O1867   2.397   1_565  S
Zr1861     O1868   2.416   1_565  S
Zr1861     O1869   2.383       .  S
Zr1861     O1870   2.383       .  S
Zr1862     O1881   2.436       .  S
Zr1862     O1874   2.436       .  S
Zr1862     O1875   2.415       .  S
Zr1862     O1868   2.402       .  S
Zr1862     O1869   2.395   1_545  S
Zr1863     O1865   2.436   1_545  S
Zr1863     O1887   2.436       .  S
Zr1863     O1889   2.432       .  S
Zr1863     O1867   2.378       .  S
Zr1863     O1870   2.387   1_545  S
Zr1864     O1890   2.435       .  S
Zr1864     O1891   2.436       .  S
Zr1864     O1866   2.437       .  S
Zr1864     O1867   2.386       .  S
Zr1864     O1868   2.388       .  S
O1865      H1902   0.990   1_565  S
O1866      H1897   0.990       .  S
O1866      H1911   0.990       .  S
O1868      H1894   0.965       .  S
O1869     Zr1879   2.378       .  S
O1870     Zr1879   2.386       .  S
O1870      H1895   0.966       .  S
C1871      C2225   1.481       .  S
C1872      C3162   1.492       .  S
C1873      C3401   1.494       .  S
O1874      H1910   0.990       .  S
O1875      C1877   1.283   1_545  A
O1876      C1877   1.285       .  A
C1877      C2294   1.485       .  S
O1878     Zr1879   2.439       .  S
O1878      H1907   0.990       .  S
Zr1879     O1882   2.438       .  S
Zr1879     O1883   2.439       .  S
Zr1879     O1884   2.398       .  S
O1880      C1885   1.286       .  A
O1881      H1898   0.990       .  S
O1881      H1913   0.990       .  S
O1882      H1899   0.990       .  S
O1883      H1903   0.990       .  S
O1883      H1912   0.990       .  S
O1884      C1885   1.279       .  A
C1885      C2197   1.485       .  S
O1886      H1905   0.990       .  S
O1886      H1909   0.990       .  S
O1887      H1901   0.990       .  S
O1887      H1908   0.990       .  S
O1888      C1892   1.288       .  A
O1889      C1892   1.285   1_545  A
O1890      H1900   0.990       .  S
O1891      H1904   0.990       .  S
C1892      C2253   1.496       .  S
Zr1915     O1916   2.442       .  S
Zr1915     O1917   2.438       .  S
Zr1915     O1918   2.456       .  S
Zr1915     O1921   2.457       .  S
Zr1915     O1923   2.386       .  S
Zr1915     O1924   2.391       .  S
Zr1915     O1925   2.414       .  S
Zr1915     O1926   2.394       .  S
O1916      H1972   0.990       .  S
O1916      H1980   0.990       .  S
O1917      C1937   1.283       .  A
O1918      C1939   1.288       .  A
O1919     Zr1929   2.409       .  S
O1919      C1938   1.281       .  A
O1920     Zr1928   2.428       .  S
O1920      C1939   1.284       .  A
O1921      C1938   1.289       .  A
O1922     Zr1930   2.393       .  S
O1922      C1937   1.276       .  A
O1923     Zr1928   2.396       .  S
O1923     Zr1930   2.383       .  S
O1924     Zr1929   2.393       .  S
O1924     Zr1930   2.380       .  S
O1924      H1959   0.966       .  S
O1925     Zr1928   2.402       .  S
O1925     Zr1945   2.386       .  S
O1925      H1962   0.965       .  S
O1926     Zr1929   2.387       .  S
O1926     Zr1945   2.381       .  S
Zr1927     O1952   2.439       .  S
Zr1927     O1946   2.454       .  S
Zr1927     O1954   2.463       .  S
Zr1927     O1942   2.447       .  S
Zr1927     O1933   2.401       .  S
Zr1927     O1934   2.415       .  S
Zr1927     O1935   2.383       .  S
Zr1927     O1936   2.385       .  S
Zr1928     O1947   2.435       .  S
Zr1928     O1940   2.436       .  S
Zr1928     O1941   2.429       .  S
Zr1928     O1934   2.398       .  S
Zr1928     O1935   2.394       .  S
Zr1929     O1931   2.436       .  S
Zr1929     O1953   2.436       .  S
Zr1929     O1955   2.420       .  S
Zr1929     O1933   2.386       .  S
Zr1929     O1936   2.391       .  S
Zr1930     O1956   2.435       .  S
Zr1930     O1957   2.436       .  S
Zr1930     O1932   2.438       .  S
Zr1930     O1933   2.381       .  S
Zr1930     O1934   2.384       .  S
O1931      H1968   0.990       .  S
O1932      H1963   0.991       .  S
O1932      H1977   0.990       .  S
O1934      H1960   0.965       .  S
O1935     Zr1945   2.380       .  S
O1936     Zr1945   2.382       .  S
O1936      H1961   0.965       .  S
C1937      C2210   1.472       .  S
C1938      C3022   1.488       .  S
C1939      C3358   1.481       .  S
O1940      H1976   0.990       .  S
O1941      C1943   1.284       .  A
O1942      C1943   1.288       .  A
C1943      C2378   1.498       .  S
O1944     Zr1945   2.440       .  S
O1944      H1973   0.990       .  S
Zr1945     O1948   2.437       .  S
Zr1945     O1949   2.440       .  S
Zr1945     O1950   2.396       .  S
O1946      C1951   1.287       .  A
O1947      H1964   0.990       .  S
O1947      H1979   0.990       .  S
O1948      H1965   0.990       .  S
O1949      H1969   0.990       .  S
O1949      H1978   0.990       .  S
O1950      C1951   1.277       .  A
C1951      C2238   1.483       .  S
O1952      H1971   0.990       .  S
O1952      H1975   0.990       .  S
O1953      H1967   0.990       .  S
O1953      H1974   0.990       .  S
O1954      C1958   1.289       .  A
O1955      C1958   1.283       .  A
O1956      H1966   0.990       .  S
O1957      H1970   0.990       .  S
C1958      C2182   1.493       .  S
Zr1981     O1982   2.442       .  S
Zr1981     O1983   2.440       .  S
Zr1981     O1984   2.459       .  S
Zr1981     O1987   2.442       .  S
Zr1981     O1989   2.382       .  S
Zr1981     O1990   2.392       .  S
Zr1981     O1991   2.409       .  S
Zr1981     O1992   2.401       .  S
O1982      H2038   0.990       .  S
O1982      H2046   0.991       .  S
O1983      C2003   1.284       .  A
O1984      C2005   1.287       .  A
O1985     Zr1995   2.417       .  S
O1985      C2004   1.283       .  A
O1986     Zr1994   2.421       .  S
O1986      C2005   1.282       .  A
O1987      C2004   1.286       .  A
O1988     Zr1996   2.396       .  S
O1988      C2003   1.278       .  A
O1989     Zr1994   2.392       .  S
O1989     Zr1996   2.386       .  S
O1990     Zr1995   2.390       .  S
O1990     Zr1996   2.377       .  S
O1990      H2025   0.966       .  S
O1991     Zr1994   2.395       .  S
O1991     Zr2011   2.382       .  S
O1991      H2028   0.964       .  S
O1992     Zr1995   2.390       .  S
O1992     Zr2011   2.385       .  S
Zr1993     O2018   2.442       .  S
Zr1993     O2012   2.440       .  S
Zr1993     O2020   2.450       .  S
Zr1993     O2008   2.445       .  S
Zr1993     O1999   2.405       .  S
Zr1993     O2000   2.410       .  S
Zr1993     O2001   2.383       .  S
Zr1993     O2002   2.385       .  S
Zr1994     O2013   2.436       .  S
Zr1994     O2006   2.433       .  S
Zr1994     O2007   2.415       .  S
Zr1994     O2000   2.401       .  S
Zr1994     O2001   2.393       .  S
Zr1995     O1997   2.435       .  S
Zr1995     O2019   2.440       .  S
Zr1995     O2021   2.422       .  S
Zr1995     O1999   2.392       .  S
Zr1995     O2002   2.391       .  S
Zr1996     O2022   2.435       .  S
Zr1996     O2023   2.436       .  S
Zr1996     O1998   2.436       .  S
Zr1996     O1999   2.390       .  S
Zr1996     O2000   2.383       .  S
O1997      H2034   0.990       .  S
O1998      H2029   0.990       .  S
O1998      H2043   0.990       .  S
O2000      H2026   0.965       .  S
O2001     Zr2011   2.376       .  S
O2002     Zr2011   2.379       .  S
O2002      H2027   0.966       .  S
C2003      C2154   1.479       .  S
C2004      C2953   1.480       .  S
C2005      C3274   1.490       .  S
O2006      H2042   0.989       .  S
O2007      C2009   1.281       .  A
O2008      C2009   1.287       .  A
C2009      C2406   1.476       .  S
O2010     Zr2011   2.439       .  S
O2010      H2039   0.990       .  S
Zr2011     O2014   2.438       .  S
Zr2011     O2015   2.438       .  S
Zr2011     O2016   2.400       .  S
O2012      C2017   1.284       .  A
O2013      H2030   0.990       .  S
O2013      H2045   0.990       .  S
O2014      H2031   0.990       .  S
O2015      H2035   0.990       .  S
O2015      H2044   0.990       .  S
O2016      C2017   1.279       .  A
C2017      C2113   1.481       .  S
O2018      H2037   0.990       .  S
O2018      H2041   0.990       .  S
O2019      H2033   0.990       .  S
O2019      H2040   0.990       .  S
O2020      C2024   1.287       .  A
O2021      C2024   1.281       .  A
O2022      H2032   0.990       .  S
O2023      H2036   0.990       .  S
C2024      C2169   1.495       .  S
Zr2047     O2048   2.443       .  S
Zr2047     O2049   2.450       .  S
Zr2047     O2050   2.456       .  S
Zr2047     O2053   2.454       .  S
Zr2047     O2055   2.381       .  S
Zr2047     O2056   2.386       .  S
Zr2047     O2057   2.414       .  S
Zr2047     O2058   2.403       .  S
O2048      H2104   0.990       .  S
O2048      H2112   0.991       .  S
O2049      C2069   1.286       .  A
O2050      C2071   1.287       .  A
O2051     Zr2061   2.419       .  S
O2051      C2070   1.283       .  A
O2052     Zr2060   2.429       .  S
O2052      C2071   1.284       .  A
O2053      C2070   1.289       .  A
O2054     Zr2062   2.389       .  S
O2054      C2069   1.277       .  A
O2055     Zr2060   2.393       .  S
O2055     Zr2062   2.381       .  S
O2056     Zr2061   2.393       .  S
O2056     Zr2062   2.378       .  S
O2056      H2091   0.966       .  S
O2057     Zr2060   2.401       .  S
O2057     Zr2077   2.389       .  S
O2057      H2094   0.965       .  S
O2058     Zr2061   2.391       .  S
O2058     Zr2077   2.390       .  S
Zr2059     O2084   2.442       .  S
Zr2059     O2078   2.445       .  S
Zr2059     O2086   2.466       .  S
Zr2059     O2074   2.448       .  S
Zr2059     O2065   2.398       .  S
Zr2059     O2066   2.410       .  S
Zr2059     O2067   2.387       .  S
Zr2059     O2068   2.385       .  S
Zr2060     O2079   2.437       .  S
Zr2060     O2072   2.436       .  S
Zr2060     O2073   2.425       .  S
Zr2060     O2066   2.397       .  S
Zr2060     O2067   2.397       .  S
Zr2061     O2063   2.435       .  S
Zr2061     O2085   2.439       .  S
Zr2061     O2087   2.423       .  S
Zr2061     O2065   2.390       .  S
Zr2061     O2068   2.391       .  S
Zr2062     O2088   2.434       .  S
Zr2062     O2089   2.435       .  S
Zr2062     O2064   2.438       .  S
Zr2062     O2065   2.384       .  S
Zr2062     O2066   2.378       .  S
O2063      H2100   0.990       .  S
O2064      H2095   0.990       .  S
O2064      H2109   0.990       .  S
O2066      H2092   0.965       .  S
O2067     Zr2077   2.378       .  S
O2068     Zr2077   2.384       .  S
O2068      H2093   0.966       .  S
C2069      C2126   1.478       .  S
C2070      C2854   1.496       .  S
C2071      C3233   1.491       .  S
O2072      H2108   0.990       .  S
O2073      C2075   1.284       .  A
O2074      C2075   1.288       .  A
C2075      C2518   1.491       .  S
O2076     Zr2077   2.439       .  S
O2076      H2105   0.990       .  S
Zr2077     O2080   2.438       .  S
Zr2077     O2081   2.439       .  S
Zr2077     O2082   2.408   1_565  S
O2078      C2083   1.285   1_565  A
O2079      H2096   0.990       .  S
O2079      H2111   0.990       .  S
O2080      H2097   0.990       .  S
O2081      H2101   0.990       .  S
O2081      H2110   0.990       .  S
O2082      C2083   1.280       .  A
C2083      C2141   1.486       .  S
O2084      H2103   0.990       .  S
O2084      H2107   0.991       .  S
O2085      H2099   0.990       .  S
O2085      H2106   0.989       .  S
O2086      C2090   1.289       .  A
O2087      C2090   1.283       .  A
O2088      H2098   0.990       .  S
O2089      H2102   0.990       .  S
C2090      C2266   1.495       .  S
C2113      C2114   1.415       .  A
C2113      C2118   1.408       .  A
C2114      C2115   1.406       .  A
C2114      N2119   1.438       .  S
C2115      C2116   1.403       .  A
C2115      H2120   1.084       .  S
C2116      C2121   1.476       .  S
C2116      C2117   1.405       .  A
C2117      C2118   1.399       .  A
C2117      N2122   1.438       .  S
C2118      H2123   1.084       .  S
N2119      H2139   1.045       .  S
N2119      H2140   1.046       .  S
C2121      C2124   1.403       .  A
C2121      C2128   1.406       .  A
N2122      H2137   1.046       .  S
N2122      H2138   1.045       .  S
C2124      C2125   1.405       .  A
C2124      H2129   1.084       .  S
C2125      C2126   1.412       .  A
C2125      N2130   1.438       .  S
C2126      C2127   1.407       .  A
C2127      C2128   1.400       .  A
C2127      H2131   1.084       .  S
C2128      N2132   1.438       .  S
N2130      H2133   1.046       .  S
N2130      H2134   1.046       .  S
N2132      H2135   1.046       .  S
N2132      H2136   1.046       .  S
C2141      C2142   1.415       .  A
C2141      C2146   1.409       .  A
C2142      C2143   1.406       .  A
C2142      N2147   1.438       .  S
C2143      C2144   1.403       .  A
C2143      H2148   1.084       .  S
C2144      C2149   1.481       .  S
C2144      C2145   1.407       .  A
C2145      C2146   1.402       .  A
C2145      N2150   1.438       .  S
C2146      H2151   1.084       .  S
N2147      H2167   1.045       .  S
N2147      H2168   1.046       .  S
C2149      C2152   1.404       .  A
C2149      C2156   1.408       .  A
N2150      H2165   1.046       .  S
N2150      H2166   1.046       .  S
C2152      C2153   1.405       .  A
C2152      H2157   1.084       .  S
C2153      C2154   1.413       .  A
C2153      N2158   1.438       .  S
C2154      C2155   1.406       .  A
C2155      C2156   1.401       .  A
C2155      H2159   1.084       .  S
C2156      N2160   1.438       .  S
N2158      H2161   1.046       .  S
N2158      H2162   1.046       .  S
N2160      H2163   1.046       .  S
N2160      H2164   1.046       .  S
C2169      C2170   1.420       .  A
C2169      C2174   1.409       .  A
C2170      C2171   1.407       .  A
C2170      N2175   1.438       .  S
C2171      C2172   1.402       .  A
C2171      H2176   1.084       .  S
C2172      C2177   1.491       .  S
C2172      C2173   1.410       .  A
C2173      C2174   1.408       .  A
C2173      N2178   1.438       .  S
C2174      H2179   1.083       .  S
N2175      H2195   1.045       .  S
N2175      H2196   1.046       .  S
C2177      C2180   1.404       .  A
C2177      C2184   1.410       .  A
N2178      H2193   1.046       .  S
N2178      H2194   1.045       .  S
C2180      C2181   1.409       .  A
C2180      H2185   1.084       .  S
C2181      C2182   1.415       .  A
C2181      N2186   1.437       .  S
C2182      C2183   1.409       .  A
C2183      C2184   1.406       .  A
C2183      H2187   1.084       .  S
C2184      N2188   1.438       .  S
N2186      H2189   1.046       .  S
N2186      H2190   1.046       .  S
N2188      H2191   1.046       .  S
N2188      H2192   1.045       .  S
C2197      C2198   1.418       .  A
C2197      C2202   1.410       .  A
C2198      C2199   1.400       .  A
C2198      N2203   1.432       .  S
C2199      C2200   1.402       .  A
C2199      H2204   1.084       .  S
C2200      C2205   1.474       .  S
C2200      C2201   1.404       .  A
C2201      C2202   1.401       .  A
C2201      N2206   1.438       .  S
C2202      H2207   1.084       .  S
N2203      H2223   1.045       .  S
N2203      H2224   1.044       .  S
C2205      C2208   1.403       .  A
C2205      C2212   1.406       .  A
N2206      H2221   1.046       .  S
N2206      H2222   1.046       .  S
C2208      C2209   1.405       .  A
C2208      H2213   1.084       .  S
C2209      C2210   1.411       .  A
C2209      N2214   1.438       .  S
C2210      C2211   1.404       .  A
C2211      C2212   1.399       .  A
C2211      H2215   1.084       .  S
C2212      N2216   1.438       .  S
N2214      H2217   1.046       .  S
N2214      H2218   1.046       .  S
N2216      H2219   1.046       .  S
N2216      H2220   1.046       .  S
C2225      C2226   1.415       .  A
C2225      C2230   1.405       .  A
C2226      C2227   1.402       .  A
C2226      N2231   1.438       .  S
C2227      C2228   1.399       .  A
C2227      H2232   1.084       .  S
C2228      C2233   1.481       .  S
C2228      C2229   1.411       .  A
C2229      C2230   1.407       .  A
C2229      N2234   1.438       .  S
C2230      H2235   1.084       .  S
N2231      H2251   1.046       .  S
N2231      H2252   1.046       .  S
C2233      C2236   1.397       .  A
C2233      C2240   1.412       .  A
N2234      H2249   1.046       .  S
N2234      H2250   1.046       .  S
C2236      C2237   1.398       .  A
C2236      H2241   1.084       .  S
C2237      C2238   1.416       .  A
C2237      N2242   1.433       .  S
C2238      C2239   1.405       .  A
C2239      C2240   1.408       .  A
C2239      H2243   1.084       .  S
C2240      N2244   1.437       .  S
N2242      H2245   1.046       .  S
N2242      H2246   1.046       .  S
N2244      H2247   1.046       .  S
N2244      H2248   1.046       .  S
C2253      C2254   1.418       .  A
C2253      C2258   1.407       .  A
C2254      C2255   1.412       .  A
C2254      N2259   1.437       .  S
C2255      C2256   1.404       .  A
C2255      H2260   1.083       .  S
C2256      C2261   1.495       .  S
C2256      C2257   1.412       .  A
C2257      C2258   1.407       .  A
C2257      N2262   1.438       .  S
C2258      H2263   1.083       .  S
N2259      H2279   1.046   1_565  S
N2259      H2280   1.046       .  S
C2261      C2264   1.402       .  A
C2261      C2268   1.413       .  A
N2262      H2277   1.046       .  S
N2262      H2278   1.046       .  S
C2264      C2265   1.406       .  A
C2264      H2269   1.084       .  S
C2265      C2266   1.418       .  A
C2265      N2270   1.438       .  S
C2266      C2267   1.407       .  A
C2267      C2268   1.413       .  A
C2267      H2271   1.083       .  S
C2268      N2272   1.437   1_565  S
N2270      H2273   1.046       .  S
N2270      H2274   1.046       .  S
N2272      H2275   1.046       .  S
N2272      H2276   1.046       .  S
C2281      C2282   1.415       .  A
C2281      C2286   1.407       .  A
C2282      C2283   1.406       .  A
C2282      N2287   1.438   1_565  S
C2283      C2284   1.401       .  A
C2283      H2288   1.084   1_565  S
C2284      C2289   1.474   1_655  S
C2284      C2285   1.405       .  A
C2285      C2286   1.401       .  A
C2285      N2290   1.438   1_655  S
C2286      H2291   1.083       .  S
N2287      H2307   1.046       .  S
N2287      H2308   1.046       .  S
C2289      C2292   1.401       .  A
C2289      C2296   1.404       .  A
N2290      H2305   1.046   1_455  S
N2290      H2306   1.046       .  S
C2292      C2293   1.405       .  A
C2292      H2297   1.084       .  S
C2293      C2294   1.417       .  A
C2293      N2298   1.437       .  S
C2294      C2295   1.409   1_565  A
C2295      C2296   1.400   1_545  A
C2295      H2299   1.083       .  S
C2296      N2300   1.438   1_565  S
N2298      H2301   1.046       .  S
N2298      H2302   1.045       .  S
N2300      H2303   1.046       .  S
N2300      H2304   1.046       .  S
C2309      C2310   1.412       .  A
C2309      C2314   1.403       .  A
C2310      C2311   1.405       .  A
C2310      N2315   1.438       .  S
C2311      C2312   1.401       .  A
C2311      H2316   1.084       .  S
C2312      C2317   1.480       .  S
C2312      C2313   1.410       .  A
C2313      C2314   1.407       .  A
C2313      N2318   1.437       .  S
C2314      H2319   1.084       .  S
N2315      H2335   1.046       .  S
N2315      H2336   1.046       .  S
C2317      C2320   1.403       .  A
C2317      C2324   1.405       .  A
N2318      H2333   1.046       .  S
N2318      H2334   1.045       .  S
C2320      C2321   1.410       .  A
C2320      H2325   1.084       .  S
C2321      C2322   1.415       .  A
C2321      N2326   1.437       .  S
C2322      C2323   1.408       .  A
C2323      C2324   1.403       .  A
C2323      H2327   1.084       .  S
C2324      N2328   1.438       .  S
N2326      H2329   1.046       .  S
N2326      H2330   1.045       .  S
N2328      H2331   1.046       .  S
N2328      H2332   1.046       .  S
C2337      C2338   1.417       .  A
C2337      C2342   1.407       .  A
C2338      C2339   1.411       .  A
C2338      N2343   1.438       .  S
C2339      C2340   1.403       .  A
C2339      H2344   1.084       .  S
C2340      C2345   1.481       .  S
C2340      C2341   1.405       .  A
C2341      C2342   1.404       .  A
C2341      N2346   1.438       .  S
C2342      H2347   1.084       .  S
N2343      H2363   1.045       .  S
N2343      H2364   1.046       .  S
C2345      C2348   1.402       .  A
C2345      C2352   1.410       .  A
N2346      H2361   1.046       .  S
N2346      H2362   1.045       .  S
C2348      C2349   1.407       .  A
C2348      H2353   1.084       .  S
C2349      C2350   1.412       .  A
C2349      N2354   1.438       .  S
C2350      C2351   1.401       .  A
C2351      C2352   1.406       .  A
C2351      H2355   1.084       .  S
C2352      N2356   1.437       .  S
N2354      H2357   1.046       .  S
N2354      H2358   1.046       .  S
N2356      H2359   1.046       .  S
N2356      H2360   1.045       .  S
C2365      C2366   1.415       .  A
C2365      C2370   1.404       .  A
C2366      C2367   1.403       .  A
C2366      N2371   1.438       .  S
C2367      C2368   1.399       .  A
C2367      H2372   1.084   1_655  S
C2368      C2373   1.482   1_655  S
C2368      C2369   1.411       .  A
C2369      C2370   1.409       .  A
C2369      N2374   1.437       .  S
C2370      H2375   1.084       .  S
N2371      H2391   1.046       .  S
N2371      H2392   1.046       .  S
C2373      C2376   1.399       .  A
C2373      C2380   1.407       .  A
N2374      H2389   1.046       .  S
N2374      H2390   1.045       .  S
C2376      C2377   1.407       .  A
C2376      H2381   1.084       .  S
C2377      C2378   1.422       .  A
C2377      N2382   1.438       .  S
C2378      C2379   1.411       .  A
C2379      C2380   1.405       .  A
C2379      H2383   1.083       .  S
C2380      N2384   1.438       .  S
N2382      H2385   1.046       .  S
N2382      H2386   1.046       .  S
N2384      H2387   1.046       .  S
N2384      H2388   1.046       .  S
C2393      C2394   1.422       .  A
C2393      C2398   1.410       .  A
C2394      C2395   1.403       .  A
C2394      N2399   1.438       .  S
C2395      C2396   1.396       .  A
C2395      H2400   1.084       .  S
C2396      C2401   1.471   1_655  S
C2396      C2397   1.404       .  A
C2397      C2398   1.403       .  A
C2397      N2402   1.438       .  S
C2398      H2403   1.083       .  S
N2399      H2419   1.046       .  S
N2399      H2420   1.046       .  S
C2401      C2404   1.396       .  A
C2401      C2408   1.407       .  A
N2402      H2417   1.046       .  S
N2402      H2418   1.045       .  S
C2404      C2405   1.400       .  A
C2404      H2409   1.084       .  S
C2405      C2406   1.416       .  A
C2405      N2410   1.437       .  S
C2406      C2407   1.404       .  A
C2407      C2408   1.406       .  A
C2407      H2411   1.084       .  S
C2408      N2412   1.437       .  S
N2410      H2413   1.046       .  S
N2410      H2414   1.045       .  S
N2412      H2415   1.046       .  S
N2412      H2416   1.045       .  S
C2421      C2422   1.418       .  A
C2421      C2426   1.408       .  A
C2422      C2423   1.412       .  A
C2422      N2427   1.437       .  S
C2423      C2424   1.404       .  A
C2423      H2428   1.084       .  S
C2424      C2429   1.496       .  S
C2424      C2425   1.411       .  A
C2425      C2426   1.411       .  A
C2425      N2430   1.437       .  S
C2426      H2431   1.083       .  S
N2427      H2447   1.046       .  S
N2427      H2448   1.046       .  S
C2429      C2432   1.402       .  A
C2429      C2436   1.411       .  A
N2430      H2445   1.046       .  S
N2430      H2446   1.046       .  S
C2432      C2433   1.411       .  A
C2432      H2437   1.084       .  S
C2433      C2434   1.421       .  A
C2433      N2438   1.438       .  S
C2434      C2435   1.409       .  A
C2435      C2436   1.412       .  A
C2435      H2439   1.083       .  S
C2436      N2440   1.437       .  S
N2438      H2441   1.046       .  S
N2438      H2442   1.046       .  S
N2440      H2443   1.046       .  S
N2440      H2444   1.046       .  S
C2449      C2450   1.413       .  A
C2449      C2454   1.406       .  A
C2450      C2451   1.409       .  A
C2450      N2455   1.438       .  S
C2451      C2452   1.406       .  A
C2451      H2456   1.084       .  S
C2452      C2457   1.485       .  S
C2452      C2453   1.407       .  A
C2453      C2454   1.402       .  A
C2453      N2458   1.438       .  S
C2454      H2459   1.084       .  S
N2455      H2475   1.045       .  S
N2455      H2476   1.046       .  S
C2457      C2460   1.406       .  A
C2457      C2464   1.405       .  A
N2458      H2473   1.046       .  S
N2458      H2474   1.046       .  S
C2460      C2461   1.411       .  A
C2460      H2465   1.084       .  S
C2461      C2462   1.415       .  A
C2461      N2466   1.438       .  S
C2462      C2463   1.410       .  A
C2463      C2464   1.401       .  A
C2463      H2467   1.083       .  S
C2464      N2468   1.439       .  S
N2466      H2469   1.046       .  S
N2466      H2470   1.046       .  S
N2468      H2471   1.046       .  S
N2468      H2472   1.046       .  S
C2477      C2478   1.413       .  A
C2477      C2482   1.403       .  A
C2478      C2479   1.402       .  A
C2478      N2483   1.438       .  S
C2479      C2480   1.399       .  A
C2479      H2484   1.084       .  S
C2480      C2485   1.474       .  S
C2480      C2481   1.408       .  A
C2481      C2482   1.406       .  A
C2481      N2486   1.437       .  S
C2482      H2487   1.084       .  S
N2483      H2503   1.046       .  S
N2483      H2504   1.046       .  S
C2485      C2488   1.403       .  A
C2485      C2492   1.405       .  A
N2486      H2501   1.046       .  S
N2486      H2502   1.046       .  S
C2488      C2489   1.408       .  A
C2488      H2493   1.084       .  S
C2489      C2490   1.412       .  A
C2489      N2494   1.437       .  S
C2490      C2491   1.406       .  A
C2491      C2492   1.400       .  A
C2491      H2495   1.084       .  S
C2492      N2496   1.438       .  S
N2494      H2497   1.046       .  S
N2494      H2498   1.045       .  S
N2496      H2499   1.046       .  S
N2496      H2500   1.046       .  S
C2505      C2506   1.415   1_565  A
C2505      C2510   1.405       .  A
C2506      C2507   1.405       .  A
C2506      N2511   1.438       .  S
C2507      C2508   1.400   1_545  A
C2507      H2512   1.084       .  S
C2508      C2513   1.483   1_655  S
C2508      C2509   1.411       .  A
C2509      C2510   1.407       .  A
C2509      N2514   1.438       .  S
C2510      H2515   1.084       .  S
N2511      H2531   1.046       .  S
N2511      H2532   1.046       .  S
C2513      C2516   1.399       .  A
C2513      C2520   1.409       .  A
N2514      H2529   1.046       .  S
N2514      H2530   1.046       .  S
C2516      C2517   1.406       .  A
C2516      H2521   1.084       .  S
C2517      C2518   1.420       .  A
C2517      N2522   1.438       .  S
C2518      C2519   1.407       .  A
C2519      C2520   1.406       .  A
C2519      H2523   1.083       .  S
C2520      N2524   1.438   1_565  S
N2522      H2525   1.046       .  S
N2522      H2526   1.046       .  S
N2524      H2527   1.046       .  S
N2524      H2528   1.046       .  S
C2533      C2534   1.417   1_545  A
C2533      C2538   1.409       .  A
C2534      C2535   1.412       .  A
C2534      N2539   1.437       .  S
C2535      C2536   1.404       .  A
C2535      H2540   1.083       .  S
C2536      C2541   1.494       .  S
C2536      C2537   1.410   1_565  A
C2537      C2538   1.408       .  A
C2537      N2542   1.438       .  S
C2538      H2543   1.083       .  S
N2539      H2559   1.046       .  S
N2539      H2560   1.046       .  S
C2541      C2544   1.403       .  A
C2541      C2548   1.411       .  A
N2542      H2557   1.046       .  S
N2542      H2558   1.046       .  S
C2544      C2545   1.409       .  A
C2544      H2549   1.084       .  S
C2545      C2546   1.419       .  A
C2545      N2550   1.438       .  S
C2546      C2547   1.408       .  A
C2547      C2548   1.410       .  A
C2547      H2551   1.083       .  S
C2548      N2552   1.437       .  S
N2550      H2553   1.046       .  S
N2550      H2554   1.045       .  S
N2552      H2555   1.046       .  S
N2552      H2556   1.045   1_565  S
C2561      C2562   1.417       .  A
C2561      C2566   1.408       .  A
C2562      C2563   1.401       .  A
C2562      N2567   1.438       .  S
C2563      C2564   1.399       .  A
C2563      H2568   1.084       .  S
C2564      C2569   1.478       .  S
C2564      C2565   1.407       .  A
C2565      C2566   1.408       .  A
C2565      N2570   1.437       .  S
C2566      H2571   1.083       .  S
N2567      H2587   1.045       .  S
N2567      H2588   1.046       .  S
C2569      C2572   1.404       .  A
C2569      C2576   1.406       .  A
N2570      H2585   1.046       .  S
N2570      H2586   1.046       .  S
C2572      C2573   1.409       .  A
C2572      H2577   1.084       .  S
C2573      C2574   1.413       .  A
C2573      N2578   1.437       .  S
C2574      C2575   1.405       .  A
C2575      C2576   1.399       .  A
C2575      H2579   1.084       .  S
C2576      N2580   1.438       .  S
N2578      H2581   1.046       .  S
N2578      H2582   1.046       .  S
N2580      H2583   1.046       .  S
N2580      H2584   1.046       .  S
C2589      C2590   1.414       .  A
C2589      C2594   1.405       .  A
C2590      C2591   1.409       .  A
C2590      N2595   1.438       .  S
C2591      C2592   1.402       .  A
C2591      H2596   1.084       .  S
C2592      C2597   1.479       .  S
C2592      C2593   1.406       .  A
C2593      C2594   1.403       .  A
C2593      N2598   1.438       .  S
C2594      H2599   1.084       .  S
N2595      H2615   1.045       .  S
N2595      H2616   1.046       .  S
C2597      C2600   1.400       .  A
C2597      C2604   1.409       .  A
N2598      H2613   1.046       .  S
N2598      H2614   1.046       .  S
C2600      C2601   1.403       .  A
C2600      H2605   1.084       .  S
C2601      C2602   1.411       .  A
C2601      N2606   1.432       .  S
C2602      C2603   1.405       .  A
C2603      C2604   1.408       .  A
C2603      H2607   1.084       .  S
C2604      N2608   1.438       .  S
N2606      H2609   1.046       .  S
N2606      H2610   1.046       .  S
N2608      H2611   1.046       .  S
N2608      H2612   1.045       .  S
C2617      C2618   1.413       .  A
C2617      C2622   1.407       .  A
C2618      C2619   1.407       .  A
C2618      N2623   1.437       .  S
C2619      C2620   1.405       .  A
C2619      H2624   1.084       .  S
C2620      C2625   1.484       .  S
C2620      C2621   1.408       .  A
C2621      C2622   1.402       .  A
C2621      N2626   1.438       .  S
C2622      H2627   1.084       .  S
N2623      H2643   1.045       .  S
N2623      H2644   1.046       .  S
C2625      C2628   1.405       .  A
C2625      C2632   1.406       .  A
N2626      H2641   1.046       .  S
N2626      H2642   1.046       .  S
C2628      C2629   1.408       .  A
C2628      H2633   1.084       .  S
C2629      C2630   1.414       .  A
C2629      N2634   1.437       .  S
C2630      C2631   1.411       .  A
C2631      C2632   1.401       .  A
C2631      H2635   1.084       .  S
C2632      N2636   1.438       .  S
N2634      H2637   1.046       .  S
N2634      H2638   1.045       .  S
N2636      H2639   1.046       .  S
N2636      H2640   1.046       .  S
C2645      C2646   1.418       .  A
C2645      C2650   1.407       .  A
C2646      C2647   1.402       .  A
C2646      N2651   1.439       .  S
C2647      C2648   1.399       .  A
C2647      H2652   1.084       .  S
C2648      C2653   1.475       .  S
C2648      C2649   1.406       .  A
C2649      C2650   1.404       .  A
C2649      N2654   1.437       .  S
C2650      H2655   1.083       .  S
N2651      H2671   1.046       .  S
N2651      H2672   1.046       .  S
C2653      C2656   1.403       .  A
C2653      C2660   1.406       .  A
N2654      H2669   1.046       .  S
N2654      H2670   1.046       .  S
C2656      C2657   1.404       .  A
C2656      H2661   1.084       .  S
C2657      C2658   1.408       .  A
C2657      N2662   1.432       .  S
C2658      C2659   1.406       .  A
C2659      C2660   1.401       .  A
C2659      H2663   1.084       .  S
C2660      N2664   1.438       .  S
N2662      H2665   1.046       .  S
N2662      H2666   1.046       .  S
N2664      H2667   1.046       .  S
N2664      H2668   1.046       .  S
C2673      C2674   1.419       .  A
C2673      C2678   1.408       .  A
C2674      C2675   1.399       .  A
C2674      N2679   1.439       .  S
C2675      C2676   1.397       .  A
C2675      H2680   1.084       .  S
C2676      C2681   1.472       .  S
C2676      C2677   1.406       .  A
C2677      C2678   1.404       .  A
C2677      N2682   1.438       .  S
C2678      H2683   1.083       .  S
N2679      H2699   1.046       .  S
N2679      H2700   1.046       .  S
C2681      C2684   1.401       .  A
C2681      C2688   1.405       .  A
N2682      H2697   1.046       .  S
N2682      H2698   1.046       .  S
C2684      C2685   1.406       .  A
C2684      H2689   1.084       .  S
C2685      C2686   1.415       .  A
C2685      N2690   1.437       .  S
C2686      C2687   1.408       .  A
C2687      C2688   1.398       .  A
C2687      H2691   1.083       .  S
C2688      N2692   1.439       .  S
N2690      H2693   1.046       .  S
N2690      H2694   1.046       .  S
N2692      H2695   1.045       .  S
N2692      H2696   1.046       .  S
C2701      C2702   1.417       .  A
C2701      C2706   1.407       .  A
C2702      C2703   1.408       .  A
C2702      N2707   1.438       .  S
C2703      C2704   1.403       .  A
C2703      H2708   1.084       .  S
C2704      C2709   1.485       .  S
C2704      C2705   1.409       .  A
C2705      C2706   1.401       .  A
C2705      N2710   1.438       .  S
C2706      H2711   1.083       .  S
N2707      H2727   1.046       .  S
N2707      H2728   1.046       .  S
C2709      C2712   1.402       .  A
C2709      C2716   1.410       .  A
N2710      H2725   1.046       .  S
N2710      H2726   1.046       .  S
C2712      C2713   1.402       .  A
C2712      H2717   1.084       .  S
C2713      C2714   1.416       .  A
C2713      N2718   1.438       .  S
C2714      C2715   1.407       .  A
C2715      C2716   1.407       .  A
C2715      H2719   1.083       .  S
C2716      N2720   1.438       .  S
N2718      H2721   1.046       .  S
N2718      H2722   1.046       .  S
N2720      H2723   1.046       .  S
N2720      H2724   1.046       .  S
C2729      C2730   1.414       .  A
C2729      C2734   1.408       .  A
C2730      C2731   1.407       .  A
C2730      N2735   1.438       .  S
C2731      C2732   1.404       .  A
C2731      H2736   1.084       .  S
C2732      C2737   1.483       .  S
C2732      C2733   1.407       .  A
C2733      C2734   1.402       .  A
C2733      N2738   1.438       .  S
C2734      H2739   1.083       .  S
N2735      H2755   1.046       .  S
N2735      H2756   1.046       .  S
C2737      C2740   1.403       .  A
C2737      C2744   1.408       .  A
N2738      H2753   1.046       .  S
N2738      H2754   1.046       .  S
C2740      C2741   1.405       .  A
C2740      H2745   1.084       .  S
C2741      C2742   1.413       .  A
C2741      N2746   1.437       .  S
C2742      C2743   1.407       .  A
C2743      C2744   1.404       .  A
C2743      H2747   1.084       .  S
C2744      N2748   1.438       .  S
N2746      H2749   1.046       .  S
N2746      H2750   1.045       .  S
N2748      H2751   1.046       .  S
N2748      H2752   1.046       .  S
C2757      C2758   1.415       .  A
C2757      C2762   1.408       .  A
C2758      C2759   1.397       .  A
C2758      N2763   1.433       .  S
C2759      C2760   1.399       .  A
C2759      H2764   1.084       .  S
C2760      C2765   1.484       .  S
C2760      C2761   1.412       .  A
C2761      C2762   1.408       .  A
C2761      N2766   1.438       .  S
C2762      H2767   1.083       .  S
N2763      H2783   1.046       .  S
N2763      H2784   1.046       .  S
C2765      C2768   1.401       .  A
C2765      C2772   1.413       .  A
N2766      H2781   1.046       .  S
N2766      H2782   1.046       .  S
C2768      C2769   1.403   1_545  A
C2768      H2773   1.084       .  S
C2769      C2770   1.415       .  A
C2769      N2774   1.438       .  S
C2770      C2771   1.402       .  A
C2771      C2772   1.404   1_565  A
C2771      H2775   1.084       .  S
C2772      N2776   1.438       .  S
N2774      H2777   1.046       .  S
N2774      H2778   1.046       .  S
N2776      H2779   1.046       .  S
N2776      H2780   1.046       .  S
C2785      C2786   1.413       .  A
C2785      C2790   1.407       .  A
C2786      C2787   1.408       .  A
C2786      N2791   1.437       .  S
C2787      C2788   1.404       .  A
C2787      H2792   1.084       .  S
C2788      C2793   1.482       .  S
C2788      C2789   1.407       .  A
C2789      C2790   1.403       .  A
C2789      N2794   1.438       .  S
C2790      H2795   1.084       .  S
N2791      H2811   1.046       .  S
N2791      H2812   1.046       .  S
C2793      C2796   1.403       .  A
C2793      C2800   1.408       .  A
N2794      H2809   1.046       .  S
N2794      H2810   1.046       .  S
C2796      C2797   1.403       .  A
C2796      H2801   1.084       .  S
C2797      C2798   1.412       .  A
C2797      N2802   1.433       .  S
C2798      C2799   1.406       .  A
C2799      C2800   1.405       .  A
C2799      H2803   1.083       .  S
C2800      N2804   1.437       .  S
N2802      H2805   1.046       .  S
N2802      H2806   1.046       .  S
N2804      H2807   1.046       .  S
N2804      H2808   1.046       .  S
C2813      C2814   1.419       .  A
C2813      C2818   1.413       .  A
C2814      C2815   1.412       .  A
C2814      N2819   1.436       .  S
C2815      C2816   1.402       .  A
C2815      H2820   1.084       .  S
C2816      C2821   1.490       .  S
C2816      C2817   1.407       .  A
C2817      C2818   1.406       .  A
C2817      N2822   1.438       .  S
C2818      H2823   1.083       .  S
N2819      H2839   1.046       .  S
N2819      H2840   1.045       .  S
C2821      C2824   1.400       .  A
C2821      C2828   1.409       .  A
N2822      H2837   1.046       .  S
N2822      H2838   1.046       .  S
C2824      C2825   1.408       .  A
C2824      H2829   1.084       .  S
C2825      C2826   1.422       .  A
C2825      N2830   1.438       .  S
C2826      C2827   1.410       .  A
C2827      C2828   1.411       .  A
C2827      H2831   1.083       .  S
C2828      N2832   1.437       .  S
N2830      H2833   1.046       .  S
N2830      H2834   1.046       .  S
N2832      H2835   1.046       .  S
N2832      H2836   1.046       .  S
C2841      C2842   1.416       .  A
C2841      C2846   1.407       .  A
C2842      C2843   1.410       .  A
C2842      N2847   1.437       .  S
C2843      C2844   1.404       .  A
C2843      H2848   1.084       .  S
C2844      C2849   1.486       .  S
C2844      C2845   1.408       .  A
C2845      C2846   1.402       .  A
C2845      N2850   1.438       .  S
C2846      H2851   1.083       .  S
N2847      H2867   1.046       .  S
N2847      H2868   1.046       .  S
C2849      C2852   1.399       .  A
C2849      C2856   1.409       .  A
N2850      H2865   1.046       .  S
N2850      H2866   1.046       .  S
C2852      C2853   1.404       .  A
C2852      H2857   1.084       .  S
C2853      C2854   1.420       .  A
C2853      N2858   1.438       .  S
C2854      C2855   1.410       .  A
C2855      C2856   1.410       .  A
C2855      H2859   1.083       .  S
C2856      N2860   1.437       .  S
N2858      H2861   1.046       .  S
N2858      H2862   1.046       .  S
N2860      H2863   1.046       .  S
N2860      H2864   1.046       .  S
C2869      C2870   1.415       .  A
C2869      C2874   1.409       .  A
C2870      C2871   1.404       .  A
C2870      N2875   1.438       .  S
C2871      C2872   1.402       .  A
C2871      H2876   1.084       .  S
C2872      C2877   1.474       .  S
C2872      C2873   1.405       .  A
C2873      C2874   1.400       .  A
C2873      N2878   1.438       .  S
C2874      H2879   1.083       .  S
N2875      H2895   1.046       .  S
N2875      H2896   1.046       .  S
C2877      C2880   1.403       .  A
C2877      C2884   1.407       .  A
N2878      H2893   1.046       .  S
N2878      H2894   1.046       .  S
C2880      C2881   1.404       .  A
C2880      H2885   1.084       .  S
C2881      C2882   1.411       .  A
C2881      N2886   1.438       .  S
C2882      C2883   1.404       .  A
C2883      C2884   1.399       .  A
C2883      H2887   1.084       .  S
C2884      N2888   1.438       .  S
N2886      H2889   1.046       .  S
N2886      H2890   1.046       .  S
N2888      H2891   1.046       .  S
N2888      H2892   1.046       .  S
C2897      C2898   1.418       .  A
C2897      C2902   1.411       .  A
C2898      C2899   1.410       .  A
C2898      N2903   1.438       .  S
C2899      C2900   1.405       .  A
C2899      H2904   1.084       .  S
C2900      C2905   1.486       .  S
C2900      C2901   1.406       .  A
C2901      C2902   1.401       .  A
C2901      N2906   1.439       .  S
C2902      H2907   1.083       .  S
N2903      H2923   1.045       .  S
N2903      H2924   1.046       .  S
C2905      C2908   1.406       .  A
C2905      C2912   1.408       .  A
N2906      H2921   1.046       .  S
N2906      H2922   1.046       .  S
C2908      C2909   1.409       .  A
C2908      H2913   1.084       .  S
C2909      C2910   1.412       .  A
C2909      N2914   1.438       .  S
C2910      C2911   1.406       .  A
C2911      C2912   1.402       .  A
C2911      H2915   1.084       .  S
C2912      N2916   1.438       .  S
N2914      H2917   1.046       .  S
N2914      H2918   1.045       .  S
N2916      H2919   1.046       .  S
N2916      H2920   1.046       .  S
C2925      C2926   1.412       .  A
C2925      C2930   1.406       .  A
C2926      C2927   1.406       .  A
C2926      N2931   1.437       .  S
C2927      C2928   1.403       .  A
C2927      H2932   1.084       .  S
C2928      C2933   1.472       .  S
C2928      C2929   1.404       .  A
C2929      C2930   1.397       .  A
C2929      N2934   1.438       .  S
C2930      H2935   1.084       .  S
N2931      H2951   1.045       .  S
N2931      H2952   1.046       .  S
C2933      C2936   1.403       .  A
C2933      C2940   1.404       .  A
N2934      H2949   1.046       .  S
N2934      H2950   1.046       .  S
C2936      C2937   1.405   1_545  A
C2936      H2941   1.084       .  S
C2937      C2938   1.413       .  A
C2937      N2942   1.438       .  S
C2938      C2939   1.408       .  A
C2939      C2940   1.399   1_565  A
C2939      H2943   1.084       .  S
C2940      N2944   1.438       .  S
N2942      H2945   1.046       .  S
N2942      H2946   1.045       .  S
N2944      H2947   1.046       .  S
N2944      H2948   1.046       .  S
C2953      C2954   1.413       .  A
C2953      C2958   1.404       .  A
C2954      C2955   1.406       .  A
C2954      N2959   1.438       .  S
C2955      C2956   1.403       .  A
C2955      H2960   1.084       .  S
C2956      C2961   1.486       .  S
C2956      C2957   1.412       .  A
C2957      C2958   1.403       .  A
C2957      N2962   1.438       .  S
C2958      H2963   1.084       .  S
N2959      H2979   1.046       .  S
N2959      H2980   1.046       .  S
C2961      C2964   1.401       .  A
C2961      C2968   1.413       .  A
N2962      H2977   1.046       .  S
N2962      H2978   1.046       .  S
C2964      C2965   1.402       .  A
C2964      H2969   1.084       .  S
C2965      C2966   1.416       .  A
C2965      N2970   1.439       .  S
C2966      C2967   1.404       .  A
C2967      C2968   1.408       .  A
C2967      H2971   1.084       .  S
C2968      N2972   1.438       .  S
N2970      H2973   1.046       .  S
N2970      H2974   1.046       .  S
N2972      H2975   1.046       .  S
N2972      H2976   1.046       .  S
C2981      C2982   1.411       .  A
C2981      C2986   1.405       .  A
C2982      C2983   1.406       .  A
C2982      N2987   1.437       .  S
C2983      C2984   1.403       .  A
C2983      H2988   1.084       .  S
C2984      C2989   1.476       .  S
C2984      C2985   1.406       .  A
C2985      C2986   1.400       .  A
C2985      N2990   1.438       .  S
C2986      H2991   1.084       .  S
N2987      H3007   1.045       .  S
N2987      H3008   1.046       .  S
C2989      C2992   1.401       .  A
C2989      C2996   1.406       .  A
N2990      H3005   1.046       .  S
N2990      H3006   1.046       .  S
C2992      C2993   1.404       .  A
C2992      H2997   1.084       .  S
C2993      C2994   1.415       .  A
C2993      N2998   1.437       .  S
C2994      C2995   1.408       .  A
C2995      C2996   1.401       .  A
C2995      H2999   1.083       .  S
C2996      N3000   1.438       .  S
N2998      H3001   1.046       .  S
N2998      H3002   1.045       .  S
N3000      H3003   1.046       .  S
N3000      H3004   1.046       .  S
C3009      C3010   1.413       .  A
C3009      C3014   1.406       .  A
C3010      C3011   1.408       .  A
C3010      N3015   1.437       .  S
C3011      C3012   1.404       .  A
C3011      H3016   1.083       .  S
C3012      C3017   1.481       .  S
C3012      C3013   1.408       .  A
C3013      C3014   1.399       .  A
C3013      N3018   1.438       .  S
C3014      H3019   1.084       .  S
N3015      H3035   1.046       .  S
N3015      H3036   1.046       .  S
C3017      C3020   1.400       .  A
C3017      C3024   1.409       .  A
N3018      H3033   1.046       .  S
N3018      H3034   1.046       .  S
C3020      C3021   1.398       .  A
C3020      H3025   1.084       .  S
C3021      C3022   1.416       .  A
C3021      N3026   1.433       .  S
C3022      C3023   1.408       .  A
C3023      C3024   1.408       .  A
C3023      H3027   1.083       .  S
C3024      N3028   1.437       .  S
N3026      H3029   1.046       .  S
N3026      H3030   1.046       .  S
N3028      H3031   1.046       .  S
N3028      H3032   1.045       .  S
C3037      C3038   1.413       .  A
C3037      C3042   1.406       .  A
C3038      C3039   1.405       .  A
C3038      N3043   1.438       .  S
C3039      C3040   1.402       .  A
C3039      H3044   1.084       .  S
C3040      C3045   1.474       .  S
C3040      C3041   1.406       .  A
C3041      C3042   1.400       .  A
C3041      N3046   1.438       .  S
C3042      H3047   1.084       .  S
N3043      H3063   1.046       .  S
N3043      H3064   1.046       .  S
C3045      C3048   1.400       .  A
C3045      C3052   1.405       .  A
N3046      H3061   1.046       .  S
N3046      H3062   1.046       .  S
C3048      C3049   1.403       .  A
C3048      H3053   1.084       .  S
C3049      C3050   1.416       .  A
C3049      N3054   1.437       .  S
C3050      C3051   1.408       .  A
C3051      C3052   1.402       .  A
C3051      H3055   1.083       .  S
C3052      N3056   1.438       .  S
N3054      H3057   1.045       .  S
N3054      H3058   1.046       .  S
N3056      H3059   1.046       .  S
N3056      H3060   1.046       .  S
C3065      C3066   1.417       .  A
C3065      C3070   1.409       .  A
C3066      C3067   1.407       .  A
C3066      N3071   1.438       .  S
C3067      C3068   1.402       .  A
C3067      H3072   1.084       .  S
C3068      C3073   1.493       .  S
C3068      C3069   1.411       .  A
C3069      C3070   1.411       .  A
C3069      N3074   1.438       .  S
C3070      H3075   1.083       .  S
N3071      H3091   1.046       .  S
N3071      H3092   1.046       .  S
C3073      C3076   1.404       .  A
C3073      C3080   1.410       .  A
N3074      H3089   1.046       .  S
N3074      H3090   1.046       .  S
C3076      C3077   1.412       .  A
C3076      H3081   1.084       .  S
C3077      C3078   1.419       .  A
C3077      N3082   1.438       .  S
C3078      C3079   1.408       .  A
C3079      C3080   1.407       .  A
C3079      H3083   1.083       .  S
C3080      N3084   1.438       .  S
N3082      H3085   1.045       .  S
N3082      H3086   1.046       .  S
N3084      H3087   1.045       .  S
N3084      H3088   1.046       .  S
C3093      C3094   1.415       .  A
C3093      C3098   1.408       .  A
C3094      C3095   1.409       .  A
C3094      N3099   1.438       .  S
C3095      C3096   1.402       .  A
C3095      H3100   1.084       .  S
C3096      C3101   1.476       .  S
C3096      C3097   1.405       .  A
C3097      C3098   1.401       .  A
C3097      N3102   1.439       .  S
C3098      H3103   1.084       .  S
N3099      H3119   1.045       .  S
N3099      H3120   1.046       .  S
C3101      C3104   1.398       .  A
C3101      C3108   1.409       .  A
N3102      H3117   1.046       .  S
N3102      H3118   1.045       .  S
C3104      C3105   1.403       .  A
C3104      H3109   1.084       .  S
C3105      C3106   1.414       .  A
C3105      N3110   1.438       .  S
C3106      C3107   1.404       .  A
C3107      C3108   1.408       .  A
C3107      H3111   1.084       .  S
C3108      N3112   1.438       .  S
N3110      H3113   1.046       .  S
N3110      H3114   1.046       .  S
N3112      H3115   1.045       .  S
N3112      H3116   1.045       .  S
C3121      C3122   1.414       .  A
C3121      C3126   1.405       .  A
C3122      C3123   1.402       .  A
C3122      N3127   1.433       .  S
C3123      C3124   1.398       .  A
C3123      H3128   1.084       .  S
C3124      C3129   1.480       .  S
C3124      C3125   1.410       .  A
C3125      C3126   1.409       .  A
C3125      N3130   1.437       .  S
C3126      H3131   1.084       .  S
N3127      H3147   1.046       .  S
N3127      H3148   1.046       .  S
C3129      C3132   1.402       .  A
C3129      C3136   1.409       .  A
N3130      H3145   1.046       .  S
N3130      H3146   1.045       .  S
C3132      C3133   1.407       .  A
C3132      H3137   1.084       .  S
C3133      C3134   1.411       .  A
C3133      N3138   1.438       .  S
C3134      C3135   1.404       .  A
C3135      C3136   1.406       .  A
C3135      H3139   1.084       .  S
C3136      N3140   1.437       .  S
N3138      H3141   1.046       .  S
N3138      H3142   1.045       .  S
N3140      H3143   1.046       .  S
N3140      H3144   1.046       .  S
C3149      C3150   1.419       .  A
C3149      C3154   1.409       .  A
C3150      C3151   1.407       .  A
C3150      N3155   1.437       .  S
C3151      C3152   1.401       .  A
C3151      H3156   1.084       .  S
C3152      C3157   1.482       .  S
C3152      C3153   1.407       .  A
C3153      C3154   1.402       .  A
C3153      N3158   1.438       .  S
C3154      H3159   1.083       .  S
N3155      H3175   1.046       .  S
N3155      H3176   1.046       .  S
C3157      C3160   1.398       .  A
C3157      C3164   1.409       .  A
N3158      H3173   1.046       .  S
N3158      H3174   1.046       .  S
C3160      C3161   1.398       .  A
C3160      H3165   1.084       .  S
C3161      C3162   1.419       .  A
C3161      N3166   1.433       .  S
C3162      C3163   1.409       .  A
C3163      C3164   1.408       .  A
C3163      H3167   1.083       .  S
C3164      N3168   1.437       .  S
N3166      H3169   1.046       .  S
N3166      H3170   1.046       .  S
N3168      H3171   1.046       .  S
N3168      H3172   1.046       .  S
C3177      C3178   1.420       .  A
C3177      C3182   1.408       .  A
C3178      C3179   1.404       .  A
C3178      N3183   1.438       .  S
C3179      C3180   1.397       .  A
C3179      H3184   1.084       .  S
C3180      C3185   1.477       .  S
C3180      C3181   1.408       .  A
C3181      C3182   1.407       .  A
C3181      N3186   1.438       .  S
C3182      H3187   1.084       .  S
N3183      H3203   1.045       .  S
N3183      H3204   1.046       .  S
C3185      C3188   1.397       .  A
C3185      C3192   1.406       .  A
N3186      H3201   1.046       .  S
N3186      H3202   1.045       .  S
C3188      C3189   1.406       .  A
C3188      H3193   1.084       .  S
C3189      C3190   1.423       .  A
C3189      N3194   1.438       .  S
C3190      C3191   1.410       .  A
C3191      C3192   1.405       .  A
C3191      H3195   1.083       .  S
C3192      N3196   1.438       .  S
N3194      H3197   1.046       .  S
N3194      H3198   1.046       .  S
N3196      H3199   1.046       .  S
N3196      H3200   1.045       .  S
C3205      C3206   1.420       .  A
C3205      C3210   1.410       .  A
C3206      C3207   1.411       .  A
C3206      N3211   1.436       .  S
C3207      C3208   1.402       .  A
C3207      H3212   1.084       .  S
C3208      C3213   1.489       .  S
C3208      C3209   1.408       .  A
C3209      C3210   1.407       .  A
C3209      N3214   1.438       .  S
C3210      H3215   1.083       .  S
N3211      H3231   1.045       .  S
N3211      H3232   1.046       .  S
C3213      C3216   1.401       .  A
C3213      C3220   1.410       .  A
N3214      H3229   1.046       .  S
N3214      H3230   1.046       .  S
C3216      C3217   1.408       .  A
C3216      H3221   1.084       .  S
C3217      C3218   1.420       .  A
C3217      N3222   1.438       .  S
C3218      C3219   1.409       .  A
C3219      C3220   1.410       .  A
C3219      H3223   1.083       .  S
C3220      N3224   1.438       .  S
N3222      H3225   1.046       .  S
N3222      H3226   1.046       .  S
N3224      H3227   1.046       .  S
N3224      H3228   1.046       .  S
C3233      C3234   1.416       .  A
C3233      C3238   1.409       .  A
C3234      C3235   1.404       .  A
C3234      N3239   1.438       .  S
C3235      C3236   1.402       .  A
C3235      H3240   1.084       .  S
C3236      C3241   1.487       .  S
C3236      C3237   1.410       .  A
C3237      C3238   1.410       .  A
C3237      N3242   1.438       .  S
C3238      H3243   1.083       .  S
N3239      H3259   1.045       .  S
N3239      H3260   1.046       .  S
C3241      C3244   1.404       .  A
C3241      C3248   1.410       .  A
N3242      H3257   1.046       .  S
N3242      H3258   1.046       .  S
C3244      C3245   1.413       .  A
C3244      H3249   1.083       .  S
C3245      C3246   1.416       .  A
C3245      N3250   1.437       .  S
C3246      C3247   1.404       .  A
C3247      C3248   1.402       .  A
C3247      H3251   1.084       .  S
C3248      N3252   1.439       .  S
N3250      H3253   1.046       .  S
N3250      H3254   1.046       .  S
N3252      H3255   1.046       .  S
N3252      H3256   1.046       .  S
C3261      C3262   1.417       .  A
C3261      C3266   1.406       .  A
C3262      C3263   1.411       .  A
C3262      N3267   1.437       .  S
C3263      C3264   1.404       .  A
C3263      H3268   1.083       .  S
C3264      C3269   1.495       .  S
C3264      C3265   1.414       .  A
C3265      C3266   1.406       .  A
C3265      N3270   1.439       .  S
C3266      H3271   1.084       .  S
N3267      H3287   1.046       .  S
N3267      H3288   1.046       .  S
C3269      C3272   1.403       .  A
C3269      C3276   1.414       .  A
N3270      H3285   1.046       .  S
N3270      H3286   1.046       .  S
C3272      C3273   1.405       .  A
C3272      H3277   1.084       .  S
C3273      C3274   1.415       .  A
C3273      N3278   1.438       .  S
C3274      C3275   1.407       .  A
C3275      C3276   1.411       .  A
C3275      H3279   1.083       .  S
C3276      N3280   1.438       .  S
N3278      H3281   1.046       .  S
N3278      H3282   1.046       .  S
N3280      H3283   1.046       .  S
N3280      H3284   1.045       .  S
C3289      C3290   1.412       .  A
C3289      C3294   1.403       .  A
C3290      C3291   1.404       .  A
C3290      N3295   1.438       .  S
C3291      C3292   1.400       .  A
C3291      H3296   1.084       .  S
C3292      C3297   1.480       .  S
C3292      C3293   1.410       .  A
C3293      C3294   1.408       .  A
C3293      N3298   1.437       .  S
C3294      H3299   1.084       .  S
N3295      H3315   1.046       .  S
N3295      H3316   1.046       .  S
C3297      C3300   1.403       .  A
C3297      C3304   1.407       .  A
N3298      H3313   1.046       .  S
N3298      H3314   1.046       .  S
C3300      C3301   1.408       .  A
C3300      H3305   1.084       .  S
C3301      C3302   1.412       .  A
C3301      N3306   1.438       .  S
C3302      C3303   1.405       .  A
C3303      C3304   1.403       .  A
C3303      H3307   1.084       .  S
C3304      N3308   1.438       .  S
N3306      H3309   1.046       .  S
N3306      H3310   1.045       .  S
N3308      H3311   1.046       .  S
N3308      H3312   1.046       .  S
C3317      C3318   1.416       .  A
C3317      C3322   1.409       .  A
C3318      C3319   1.410       .  A
C3318      N3323   1.437       .  S
C3319      C3320   1.405       .  A
C3319      H3324   1.084       .  S
C3320      C3325   1.483       .  S
C3320      C3321   1.405       .  A
C3321      C3322   1.400       .  A
C3321      N3326   1.438       .  S
C3322      H3327   1.083       .  S
N3323      H3343   1.045       .  S
N3323      H3344   1.046       .  S
C3325      C3328   1.405       .  A
C3325      C3332   1.407       .  A
N3326      H3341   1.046       .  S
N3326      H3342   1.045       .  S
C3328      C3329   1.407       .  A
C3328      H3333   1.084       .  S
C3329      C3330   1.412       .  A
C3329      N3334   1.438       .  S
C3330      C3331   1.406       .  A
C3331      C3332   1.402       .  A
C3331      H3335   1.084       .  S
C3332      N3336   1.438       .  S
N3334      H3337   1.046       .  S
N3334      H3338   1.046       .  S
N3336      H3339   1.046       .  S
N3336      H3340   1.046       .  S
C3345      C3346   1.416       .  A
C3345      C3350   1.409       .  A
C3346      C3347   1.408       .  A
C3346      N3351   1.432       .  S
C3347      C3348   1.403       .  A
C3347      H3352   1.084       .  S
C3348      C3353   1.486   1_556  S
C3348      C3349   1.409       .  A
C3349      C3350   1.403       .  A
C3349      N3354   1.439       .  S
C3350      H3355   1.083       .  S
N3351      H3371   1.046       .  S
N3351      H3372   1.046       .  S
C3353      C3356   1.404       .  A
C3353      C3360   1.410       .  A
N3354      H3369   1.046       .  S
N3354      H3370   1.046   1_556  S
C3356      C3357   1.407       .  A
C3356      H3361   1.084       .  S
C3357      C3358   1.412       .  A
C3357      N3362   1.438       .  S
C3358      C3359   1.405       .  A
C3359      C3360   1.407       .  A
C3359      H3363   1.084       .  S
C3360      N3364   1.438       .  S
N3362      H3365   1.046       .  S
N3362      H3366   1.046       .  S
N3364      H3367   1.046       .  S
N3364      H3368   1.046       .  S
C3373      C3374   1.411       .  A
C3373      C3378   1.404       .  A
C3374      C3375   1.407       .  A
C3374      N3379   1.438       .  S
C3375      C3376   1.406       .  A
C3375      H3380   1.083       .  S
C3376      C3381   1.499       .  S
C3376      C3377   1.415       .  A
C3377      C3378   1.412       .  A
C3377      N3382   1.437       .  S
C3378      H3383   1.084       .  S
N3379      H3399   1.046       .  S
N3379      H3400   1.046       .  S
C3381      C3384   1.408       .  A
C3381      C3388   1.413       .  A
N3382      H3397   1.046       .  S
N3382      H3398   1.046       .  S
C3384      C3385   1.413       .  A
C3384      H3389   1.083       .  S
C3385      C3386   1.413       .  A
C3385      N3390   1.437       .  S
C3386      C3387   1.405       .  A
C3387      C3388   1.408       .  A
C3387      H3391   1.084       .  S
C3388      N3392   1.438       .  S
N3390      H3393   1.046       .  S
N3390      H3394   1.046       .  S
N3392      H3395   1.046       .  S
N3392      H3396   1.046       .  S
C3401      C3402   1.416       .  A
C3401      C3406   1.408       .  A
C3402      C3403   1.408       .  A
C3402      N3407   1.438       .  S
C3403      C3404   1.403       .  A
C3403      H3408   1.084       .  S
C3404      C3409   1.491   1_554  S
C3404      C3405   1.410       .  A
C3405      C3406   1.411       .  A
C3405      N3410   1.437       .  S
C3406      H3411   1.083       .  S
N3407      H3427   1.046       .  S
N3407      H3428   1.046       .  S
C3409      C3412   1.405       .  A
C3409      C3416   1.410       .  A
N3410      H3425   1.046       .  S
N3410      H3426   1.046       .  S
C3412      C3413   1.413       .  A
C3412      H3417   1.083       .  S
C3413      C3414   1.417       .  A
C3413      N3418   1.437       .  S
C3414      C3415   1.407       .  A
C3415      C3416   1.403       .  A
C3415      H3419   1.083       .  S
C3416      N3420   1.438       .  S
N3418      H3421   1.046       .  S
N3418      H3422   1.046       .  S
N3420      H3423   1.046       .  S
N3420      H3424   1.046   1_556  S
C3429      C3430   1.417       .  A
C3429      C3434   1.404       .  A
C3430      C3431   1.401       .  A
C3430      N3435   1.439       .  S
C3431      C3432   1.398       .  A
C3431      H3436   1.084       .  S
C3432      C3437   1.476       .  S
C3432      C3433   1.409       .  A
C3433      C3434   1.404       .  A
C3433      N3438   1.438       .  S
C3434      H3439   1.084       .  S
N3435      H3455   1.046       .  S
N3435      H3456   1.046       .  S
C3437      C3440   1.399       .  A
C3437      C3444   1.409       .  A
N3438      H3453   1.046       .  S
N3438      H3454   1.046       .  S
C3440      C3441   1.398       .  A
C3440      H3445   1.084       .  S
C3441      C3442   1.413       .  A
C3441      N3446   1.433       .  S
C3442      C3443   1.405       .  A
C3443      C3444   1.404       .  A
C3443      H3447   1.084       .  S
C3444      N3448   1.438       .  S
N3446      H3449   1.046       .  S
N3446      H3450   1.046       .  S
N3448      H3451   1.046       .  S
N3448      H3452   1.046       .  S
C3457      C3458   1.417       .  A
C3457      C3462   1.405       .  A
C3458      C3459   1.403       .  A
C3458      N3463   1.438       .  S
C3459      C3460   1.399       .  A
C3459      H3464   1.084       .  S
C3460      C3465   1.479       .  S
C3460      C3461   1.410       .  A
C3461      C3462   1.406       .  A
C3461      N3466   1.438       .  S
C3462      H3467   1.084       .  S
N3463      H3483   1.046       .  S
N3463      H3484   1.046       .  S
C3465      C3468   1.398       .  A
C3465      C3472   1.410       .  A
N3466      H3481   1.046       .  S
N3466      H3482   1.045       .  S
C3468      C3469   1.403       .  A
C3468      H3473   1.084       .  S
C3469      C3470   1.418       .  A
C3469      N3474   1.438       .  S
C3470      C3471   1.405       .  A
C3471      C3472   1.407       .  A
C3471      H3475   1.083       .  S
C3472      N3476   1.438       .  S
N3474      H3477   1.046       .  S
N3474      H3478   1.046       .  S
N3476      H3479   1.046       .  S
N3476      H3480   1.046       .  S
C3485      C3486   1.414       .  A
C3485      C3490   1.410       .  A
C3486      C3487   1.412       .  A
C3486      N3491   1.437       .  S
C3487      C3488   1.406       .  A
C3487      H3492   1.084       .  S
C3488      C3493   1.487       .  S
C3488      C3489   1.407       .  A
C3489      C3490   1.404       .  A
C3489      N3494   1.438   1_565  S
C3490      H3495   1.084   1_565  S
N3491      H3511   1.046       .  S
N3491      H3512   1.046       .  S
C3493      C3496   1.403       .  A
C3493      C3500   1.408       .  A
N3494      H3509   1.046       .  S
N3494      H3510   1.046       .  S
C3496      C3497   1.408       .  A
C3496      H3501   1.084       .  S
C3497      C3498   1.415       .  A
C3497      N3502   1.437       .  S
C3498      C3499   1.409       .  A
C3499      C3500   1.406       .  A
C3499      H3503   1.083       .  S
C3500      N3504   1.438       .  S
N3502      H3505   1.045   1_565  S
N3502      H3506   1.045   1_565  S
N3504      H3507   1.046       .  S
N3504      H3508   1.046       .  S
C3513      C3514   1.415       .  A
C3513      C3518   1.407       .  A
C3514      C3515   1.414       .  A
C3514      N3519   1.437       .  S
C3515      C3516   1.406       .  A
C3515      H3520   1.083       .  S
C3516      C3521   1.491   1_556  S
C3516      C3517   1.409       .  A
C3517      C3518   1.404       .  A
C3517      N3522   1.439       .  S
C3518      H3523   1.083       .  S
N3519      H3539   1.046       .  S
N3519      H3540   1.046       .  S
C3521      C3524   1.405       .  A
C3521      C3528   1.411       .  A
N3522      H3537   1.046       .  S
N3522      H3538   1.046   1_556  S
C3524      C3525   1.408       .  A
C3524      H3529   1.084       .  S
C3525      C3526   1.413       .  A
C3525      N3530   1.438       .  S
C3526      C3527   1.406       .  A
C3527      C3528   1.408       .  A
C3527      H3531   1.084       .  S
C3528      N3532   1.438       .  S
N3530      H3533   1.046       .  S
N3530      H3534   1.046       .  S
N3532      H3535   1.046       .  S
N3532      H3536   1.046       .  S
C3541      C3542   1.418       .  A
C3541      C3546   1.408       .  A
C3542      C3543   1.409       .  A
C3542      N3547   1.437       .  S
C3543      C3544   1.402       .  A
C3543      H3548   1.084       .  S
C3544      C3549   1.487   1_655  S
C3544      C3545   1.408       .  A
C3545      C3546   1.405       .  A
C3545      N3550   1.438       .  S
C3546      H3551   1.083       .  S
N3547      H3567   1.046       .  S
N3547      H3568   1.046       .  S
C3549      C3552   1.401       .  A
C3549      C3556   1.409       .  A
N3550      H3565   1.045       .  S
N3550      H3566   1.046   1_655  S
C3552      C3553   1.406       .  A
C3552      H3557   1.084       .  S
C3553      C3554   1.418       .  A
C3553      N3558   1.438   1_565  S
C3554      C3555   1.408       .  A
C3555      C3556   1.407       .  A
C3555      H3559   1.083       .  S
C3556      N3560   1.437       .  S
N3558      H3561   1.046       .  S
N3558      H3562   1.046       .  S
N3560      H3563   1.046       .  S
N3560      H3564   1.046       .  S
C3569      C3570   1.416       .  A
C3569      C3574   1.407       .  A
C3570      C3571   1.412       .  A
C3570      N3575   1.436       .  S
C3571      C3572   1.404       .  A
C3571      H3576   1.084       .  S
C3572      C3577   1.486   1_556  S
C3572      C3573   1.408       .  A
C3573      C3574   1.402       .  A
C3573      N3578   1.438       .  S
C3574      H3579   1.084       .  S
N3575      H3595   1.044       .  S
N3575      H3596   1.046       .  S
C3577      C3580   1.402       .  A
C3577      C3584   1.409       .  A
N3578      H3593   1.046       .  S
N3578      H3594   1.046   1_556  S
C3580      C3581   1.406       .  A
C3580      H3585   1.084       .  S
C3581      C3582   1.417       .  A
C3581      N3586   1.438       .  S
C3582      C3583   1.409       .  A
C3583      C3584   1.408       .  A
C3583      H3587   1.083       .  S
C3584      N3588   1.438       .  S
N3586      H3589   1.046       .  S
N3586      H3590   1.046       .  S
N3588      H3591   1.046       .  S
N3588      H3592   1.046       .  S
C3597      C3598   1.414       .  A
C3597      C3602   1.404       .  A
C3598      C3599   1.403       .  A
C3598      N3603   1.438       .  S
C3599      C3600   1.398       .  A
C3599      H3604   1.084       .  S
C3600      C3605   1.479       .  S
C3600      C3601   1.410       .  A
C3601      C3602   1.409       .  A
C3601      N3606   1.437       .  S
C3602      H3607   1.084       .  S
N3603      H3623   1.046       .  S
N3603      H3624   1.046       .  S
C3605      C3608   1.401       .  A
C3605      C3612   1.406       .  A
N3606      H3621   1.046       .  S
N3606      H3622   1.045       .  S
C3608      C3609   1.408       .  A
C3608      H3613   1.084       .  S
C3609      C3610   1.415       .  A
C3609      N3614   1.438       .  S
C3610      C3611   1.408       .  A
C3611      C3612   1.406       .  A
C3611      H3615   1.084       .  S
C3612      N3616   1.438       .  S
N3614      H3617   1.046       .  S
N3614      H3618   1.045       .  S
N3616      H3619   1.046       .  S
N3616      H3620   1.045       .  S
C3625      C3626   1.421       .  A
C3625      C3630   1.408       .  A
C3626      C3627   1.403       .  A
C3626      N3631   1.438       .  S
C3627      C3628   1.396       .  A
C3627      H3632   1.084       .  S
C3628      C3633   1.482       .  S
C3628      C3629   1.411       .  A
C3629      C3630   1.410       .  A
C3629      N3634   1.438       .  S
C3630      H3635   1.083       .  S
N3631      H3651   1.046       .  S
N3631      H3652   1.046       .  S
C3633      C3636   1.399       .  A
C3633      C3640   1.413       .  A
N3634      H3649   1.046       .  S
N3634      H3650   1.046       .  S
C3636      C3637   1.400       .  A
C3636      H3641   1.084       .  S
C3637      C3638   1.412       .  A
C3637      N3642   1.433       .  S
C3638      C3639   1.404       .  A
C3639      C3640   1.410       .  A
C3639      H3643   1.084       .  S
C3640      N3644   1.437       .  S
N3642      H3645   1.046       .  S
N3642      H3646   1.046       .  S
N3644      H3647   1.046       .  S
N3644      H3648   1.046       .  S
C3653      C3654   1.417       .  A
C3653      C3658   1.406       .  A
C3654      C3655   1.407       .  A
C3654      N3659   1.438       .  S
C3655      C3656   1.402       .  A
C3655      H3660   1.084       .  S
C3656      C3661   1.481   1_655  S
C3656      C3657   1.408       .  A
C3657      C3658   1.401       .  A
C3657      N3662   1.438       .  S
C3658      H3663   1.083       .  S
N3659      H3679   1.046       .  S
N3659      H3680   1.046       .  S
C3661      C3664   1.400       .  A
C3661      C3668   1.410       .  A
N3662      H3677   1.046       .  S
N3662      H3678   1.046   1_655  S
C3664      C3665   1.402       .  A
C3664      H3669   1.084       .  S
C3665      C3666   1.415       .  A
C3665      N3670   1.438       .  S
C3666      C3667   1.407       .  A
C3667      C3668   1.406       .  A
C3667      H3671   1.084       .  S
C3668      N3672   1.438       .  S
N3670      H3673   1.046       .  S
N3670      H3674   1.046       .  S
N3672      H3675   1.046       .  S
N3672      H3676   1.045       .  S
C3681      C3682   1.416       .  A
C3681      C3686   1.405       .  A
C3682      C3683   1.409       .  A
C3682      N3687   1.438       .  S
C3683      C3684   1.402       .  A
C3683      H3688   1.084       .  S
C3684      C3689   1.484       .  S
C3684      C3685   1.410       .  A
C3685      C3686   1.406       .  A
C3685      N3690   1.438       .  S
C3686      H3691   1.084       .  S
N3687      H3707   1.046       .  S
N3687      H3708   1.046       .  S
C3689      C3692   1.405       .  A
C3689      C3696   1.408       .  A
N3690      H3705   1.046       .  S
N3690      H3706   1.044       .  S
C3692      C3693   1.414       .  A
C3692      H3697   1.083       .  S
C3693      C3694   1.413       .  A
C3693      N3698   1.437       .  S
C3694      C3695   1.406       .  A
C3695      C3696   1.402       .  A
C3695      H3699   1.084       .  S
C3696      N3700   1.439       .  S
N3698      H3701   1.046       .  S
N3698      H3702   1.046       .  S
N3700      H3703   1.046       .  S
N3700      H3704   1.044       .  S
C3709      C3710   1.415       .  A
C3709      C3714   1.405       .  A
C3710      C3711   1.404       .  A
C3710      N3715   1.438       .  S
C3711      C3712   1.402       .  A
C3711      H3716   1.084       .  S
C3712      C3717   1.481   1_455  S
C3712      C3713   1.408       .  A
C3713      C3714   1.405       .  A
C3713      N3718   1.437       .  S
C3714      H3719   1.084       .  S
N3715      H3735   1.046       .  S
N3715      H3736   1.046       .  S
C3717      C3720   1.404       .  A
C3717      C3724   1.407       .  A
N3718      H3733   1.046       .  S
N3718      H3734   1.046       .  S
C3720      C3721   1.409       .  A
C3720      H3725   1.084       .  S
C3721      C3722   1.414       .  A
C3721      N3726   1.438       .  S
C3722      C3723   1.406       .  A
C3723      C3724   1.400       .  A
C3723      H3727   1.084       .  S
C3724      N3728   1.438       .  S
N3726      H3729   1.046       .  S
N3726      H3730   1.046       .  S
N3728      H3731   1.046       .  S
N3728      H3732   1.046   1_655  S
C3737      C3738   1.417       .  A
C3737      C3742   1.409       .  A
C3738      C3739   1.408       .  A
C3738      N3743   1.437       .  S
C3739      C3740   1.402       .  A
C3739      H3744   1.084       .  S
C3740      C3745   1.481       .  S
C3740      C3741   1.406       .  A
C3741      C3742   1.403       .  A
C3741      N3746   1.438       .  S
C3742      H3747   1.083       .  S
N3743      H3763   1.046       .  S
N3743      H3764   1.046       .  S
C3745      C3748   1.402       .  A
C3745      C3752   1.406       .  A
N3746      H3761   1.046       .  S
N3746      H3762   1.046       .  S
C3748      C3749   1.407       .  A
C3748      H3753   1.084       .  S
C3749      C3750   1.416       .  A
C3749      N3754   1.437       .  S
C3750      C3751   1.408       .  A
C3751      C3752   1.404       .  A
C3751      H3755   1.083       .  S
C3752      N3756   1.438       .  S
N3754      H3757   1.046       .  S
N3754      H3758   1.046       .  S
N3756      H3759   1.046       .  S
N3756      H3760   1.046       .  S
C3765      C3766   1.418       .  A
C3765      C3770   1.408       .  A
C3766      C3767   1.412       .  A
C3766      N3771   1.437       .  S
C3767      C3768   1.405       .  A
C3767      H3772   1.083       .  S
C3768      C3773   1.497       .  S
C3768      C3769   1.413       .  A
C3769      C3770   1.405       .  A
C3769      N3774   1.439       .  S
C3770      H3775   1.083       .  S
N3771      H3791   1.046       .  S
N3771      H3792   1.046       .  S
C3773      C3776   1.405       .  A
C3773      C3780   1.415       .  A
N3774      H3789   1.046       .  S
N3774      H3790   1.046       .  S
C3776      C3777   1.406       .  A
C3776      H3781   1.084       .  S
C3777      C3778   1.413       .  A
C3777      N3782   1.438       .  S
C3778      C3779   1.405       .  A
C3779      C3780   1.411       .  A
C3779      H3783   1.084       .  S
C3780      N3784   1.438       .  S
N3782      H3785   1.046       .  S
N3782      H3786   1.046       .  S
N3784      H3787   1.046       .  S
N3784      H3788   1.046       .  S
C3793      C3794   1.412       .  A
C3793      C3798   1.404       .  A
C3794      C3795   1.398       .  A
C3794      N3799   1.433       .  S
C3795      C3796   1.399       .  A
C3795      H3800   1.084       .  S
C3796      C3801   1.484       .  S
C3796      C3797   1.414       .  A
C3797      C3798   1.410       .  A
C3797      N3802   1.437       .  S
C3798      H3803   1.084       .  S
N3799      H3819   1.046       .  S
N3799      H3820   1.046       .  S
C3801      C3804   1.397       .  A
C3801      C3808   1.412       .  A
N3802      H3817   1.046       .  S
N3802      H3818   1.046       .  S
C3804      C3805   1.403       .  A
C3804      H3809   1.084       .  S
C3805      C3806   1.422       .  A
C3805      N3810   1.438       .  S
C3806      C3807   1.405       .  A
C3807      C3808   1.408       .  A
C3807      H3811   1.083       .  S
C3808      N3812   1.437       .  S
N3810      H3813   1.046       .  S
N3810      H3814   1.046       .  S
N3812      H3815   1.046       .  S
N3812      H3816   1.045       .  S
C3821      C3822   1.414       .  A
C3821      C3826   1.403       .  A
C3822      C3823   1.403       .  A
C3822      N3827   1.438       .  S
C3823      C3824   1.398       .  A
C3823      H3828   1.084       .  S
C3824      C3829   1.474       .  S
C3824      C3825   1.409       .  A
C3825      C3826   1.406       .  A
C3825      N3830   1.438       .  S
C3826      H3831   1.084       .  S
N3827      H3847   1.046       .  S
N3827      H3848   1.046       .  S
C3829      C3832   1.402       .  A
C3829      C3836   1.406       .  A
N3830      H3845   1.046       .  S
N3830      H3846   1.044       .  S
C3832      C3833   1.406       .  A
C3832      H3837   1.084       .  S
C3833      C3834   1.413       .  A
C3833      N3838   1.438       .  S
C3834      C3835   1.406       .  A
C3835      C3836   1.403       .  A
C3835      H3839   1.084       .  S
C3836      N3840   1.438       .  S
N3838      H3841   1.046       .  S
N3838      H3842   1.045       .  S
N3840      H3843   1.046       .  S
N3840      H3844   1.044       .  S
C3849      C3850   1.415       .  A
C3849      C3854   1.408       .  A
C3850      C3851   1.407       .  A
C3850      N3855   1.438       .  S
C3851      C3852   1.403       .  A
C3851      H3856   1.084       .  S
C3852      C3857   1.484   1_455  S
C3852      C3853   1.409       .  A
C3853      C3854   1.402       .  A
C3853      N3858   1.438       .  S
C3854      H3859   1.083       .  S
N3855      H3875   1.046   1_565  S
N3855      H3876   1.046   1_565  S
C3857      C3860   1.401       .  A
C3857      C3864   1.410       .  A
N3858      H3873   1.046       .  S
N3858      H3874   1.045       .  S
C3860      C3861   1.404       .  A
C3860      H3865   1.084       .  S
C3861      C3862   1.417       .  A
C3861      N3866   1.438       .  S
C3862      C3863   1.408       .  A
C3863      C3864   1.406       .  A
C3863      H3867   1.083       .  S
C3864      N3868   1.438       .  S
N3866      H3869   1.046       .  S
N3866      H3870   1.045       .  S
N3868      H3871   1.046       .  S
N3868      H3872   1.045       .  S
C3877      C3878   1.415       .  A
C3877      C3882   1.407       .  A
C3878      C3879   1.406       .  A
C3878      N3883   1.437       .  S
C3879      C3880   1.402       .  A
C3879      H3884   1.084       .  S
C3880      C3885   1.492       .  S
C3880      C3881   1.414       .  A
C3881      C3882   1.411       .  A
C3881      N3886   1.438   1_565  S
C3882      H3887   1.084       .  S
N3883      H3903   1.046       .  S
N3883      H3904   1.046       .  S
C3885      C3888   1.401       .  A
C3885      C3892   1.414       .  A
N3886      H3901   1.046       .  S
N3886      H3902   1.046       .  S
C3888      C3889   1.405   1_565  A
C3888      H3893   1.084   1_565  S
C3889      C3890   1.417   1_545  A
C3889      N3894   1.438       .  S
C3890      C3891   1.403       .  A
C3891      C3892   1.409       .  A
C3891      H3895   1.084       .  S
C3892      N3896   1.437       .  S
N3894      H3897   1.046       .  S
N3894      H3898   1.046       .  S
N3896      H3899   1.046       .  S
N3896      H3900   1.045       .  S
C3905      C3906   1.415       .  A
C3905      C3910   1.406       .  A
C3906      C3907   1.411       .  A
C3906      N3911   1.437       .  S
C3907      C3908   1.404       .  A
C3907      H3912   1.083       .  S
C3908      C3913   1.490       .  S
C3908      C3909   1.411       .  A
C3909      C3910   1.404       .  A
C3909      N3914   1.439       .  S
C3910      H3915   1.084       .  S
N3911      H3931   1.046       .  S
N3911      H3932   1.046       .  S
C3913      C3916   1.402       .  A
C3913      C3920   1.411       .  A
N3914      H3929   1.046       .  S
N3914      H3930   1.046       .  S
C3916      C3917   1.404       .  A
C3916      H3921   1.084       .  S
C3917      C3918   1.417       .  A
C3917      N3922   1.438       .  S
C3918      C3919   1.407       .  A
C3919      C3920   1.410       .  A
C3919      H3923   1.083       .  S
C3920      N3924   1.437       .  S
N3922      H3925   1.046       .  S
N3922      H3926   1.045       .  S
N3924      H3927   1.046       .  S
N3924      H3928   1.046       .  S
C3933      C3934   1.408       .  A
C3933      C3938   1.402       .  A
C3934      C3935   1.406       .  A
C3934      N3939   1.437       .  S
C3935      C3936   1.407       .  A
C3935      H3940   1.083       .  S
C3936      C3941   1.487       .  S
C3936      C3937   1.412       .  A
C3937      C3938   1.402       .  A
C3937      N3942   1.438       .  S
C3938      H3943   1.084       .  S
N3939      H3959   1.046       .  S
N3939      H3960   1.046       .  S
C3941      C3944   1.403       .  A
C3941      C3948   1.413       .  A
N3942      H3957   1.046       .  S
N3942      H3958   1.046       .  S
C3944      C3945   1.402       .  A
C3944      H3949   1.083       .  S
C3945      C3946   1.413       .  A
C3945      N3950   1.439       .  S
C3946      C3947   1.401       .  A
C3947      C3948   1.406       .  A
C3947      H3951   1.084       .  S
C3948      N3952   1.437       .  S
N3950      H3953   1.046       .  S
N3950      H3954   1.045       .  S
N3952      H3955   1.046       .  S
N3952      H3956   1.046       .  S
C3961      C3962   1.416       .  A
C3961      C3966   1.405       .  A
C3962      C3963   1.410       .  A
C3962      N3967   1.438       .  S
C3963      C3964   1.402       .  A
C3963      H3968   1.084       .  S
C3964      C3969   1.488       .  S
C3964      C3965   1.411       .  A
C3965      C3966   1.410       .  A
C3965      N3970   1.439       .  S
C3966      H3971   1.084       .  S
N3967      H3987   1.045       .  S
N3967      H3988   1.046       .  S
C3969      C3972   1.405       .  A
C3969      C3976   1.409       .  A
N3970      H3985   1.046       .  S
N3970      H3986   1.044       .  S
C3972      C3973   1.415       .  A
C3972      H3977   1.083       .  S
C3973      C3974   1.416       .  A
C3973      N3978   1.437       .  S
C3974      C3975   1.408       .  A
C3975      C3976   1.403       .  A
C3975      H3979   1.083       .  S
C3976      N3980   1.440       .  S
N3978      H3981   1.046       .  S
N3978      H3982   1.046       .  S
N3980      H3983   1.046       .  S
N3980      H3984   1.044       .  S
C3989      C3990   1.419       .  A
C3989      C3994   1.405       .  A
C3990      C3991   1.401       .  A
C3990      N3995   1.439       .  S
C3991      C3992   1.398       .  A
C3991      H3996   1.084       .  S
C3992      C3997   1.478       .  S
C3992      C3993   1.410       .  A
C3993      C3994   1.407       .  A
C3993      N3998   1.437       .  S
C3994      H3999   1.083       .  S
N3995      H4015   1.046       .  S
N3995      H4016   1.046       .  S
C3997      C4000   1.398       .  A
C3997      C4004   1.411       .  A
N3998      H4013   1.046       .  S
N3998      H4014   1.045       .  S
C4000      C4001   1.399       .  A
C4000      H4005   1.084       .  S
C4001      C4002   1.414       .  A
C4001      N4006   1.433       .  S
C4002      C4003   1.403       .  A
C4003      C4004   1.406       .  A
C4003      H4007   1.084       .  S
C4004      N4008   1.437       .  S
N4006      H4009   1.046       .  S
N4006      H4010   1.046       .  S
N4008      H4011   1.046       .  S
N4008      H4012   1.046       .  S
C4017      C4018   1.416       .  A
C4017      C4022   1.403       .  A
C4018      C4019   1.403   1_565  A
C4018      N4023   1.438       .  S
C4019      C4020   1.399       .  A
C4019      H4024   1.084       .  S
C4020      C4025   1.477       .  S
C4020      C4021   1.410       .  A
C4021      C4022   1.404   1_545  A
C4021      N4026   1.438       .  S
C4022      H4027   1.084       .  S
N4023      H4043   1.046       .  S
N4023      H4044   1.046       .  S
C4025      C4028   1.398       .  A
C4025      C4032   1.410       .  A
N4026      H4041   1.046       .  S
N4026      H4042   1.046       .  S
C4028      C4029   1.398       .  A
C4028      H4033   1.084       .  S
C4029      C4030   1.415       .  A
C4029      N4034   1.433       .  S
C4030      C4031   1.406       .  A
C4031      C4032   1.405       .  A
C4031      H4035   1.083       .  S
C4032      N4036   1.437       .  S
N4034      H4037   1.046       .  S
N4034      H4038   1.046       .  S
N4036      H4039   1.046       .  S
N4036      H4040   1.046       .  S
C4045      C4046   1.412       .  A
C4045      C4050   1.402       .  A
C4046      C4047   1.404       .  A
C4046      N4051   1.438       .  S
C4047      C4048   1.403       .  A
C4047      H4052   1.084       .  S
C4048      C4053   1.486       .  S
C4048      C4049   1.413       .  A
C4049      C4050   1.405       .  A
C4049      N4054   1.438       .  S
C4050      H4055   1.084       .  S
N4051      H4071   1.045       .  S
N4051      H4072   1.046       .  S
C4053      C4056   1.407       .  A
C4053      C4060   1.412       .  A
N4054      H4069   1.046       .  S
N4054      H4070   1.046       .  S
C4056      C4057   1.405       .  A
C4056      H4061   1.083       .  S
C4057      C4058   1.407       .  A
C4057      N4062   1.437       .  S
C4058      C4059   1.401       .  A
C4059      C4060   1.402       .  A
C4059      H4063   1.084       .  S
C4060      N4064   1.438       .  S
N4062      H4065   1.046       .  S
N4062      H4066   1.046       .  S
N4064      H4067   1.046       .  S
N4064      H4068   1.046       .  S
C4073      C4074   1.413       .  A
C4073      C4078   1.405       .  A
C4074      C4075   1.405       .  A
C4074      N4079   1.438       .  S
C4075      C4076   1.400       .  A
C4075      H4080   1.084       .  S
C4076      C4081   1.479   1_556  S
C4076      C4077   1.409       .  A
C4077      C4078   1.407       .  A
C4077      N4082   1.438       .  S
C4078      H4083   1.084       .  S
N4079      H4099   1.046       .  S
N4079      H4100   1.046       .  S
C4081      C4084   1.402       .  A
C4081      C4088   1.408       .  A
N4082      H4097   1.046       .  S
N4082      H4098   1.044       .  S
C4084      C4085   1.410       .  A
C4084      H4089   1.084       .  S
C4085      C4086   1.415       .  A
C4085      N4090   1.437       .  S
C4086      C4087   1.408       .  A
C4087      C4088   1.401       .  A
C4087      H4091   1.083       .  S
C4088      N4092   1.439       .  S
N4090      H4093   1.046       .  S
N4090      H4094   1.046       .  S
N4092      H4095   1.046       .  S
N4092      H4096   1.044   1_554  S
C4101      C4102   1.414       .  A
C4101      C4106   1.409       .  A
C4102      C4103   1.408       .  A
C4102      N4107   1.437       .  S
C4103      C4104   1.403       .  A
C4103      H4108   1.084       .  S
C4104      C4109   1.477       .  S
C4104      C4105   1.404       .  A
C4105      C4106   1.399       .  A
C4105      N4110   1.439       .  S
C4106      H4111   1.083       .  S
N4107      H4127   1.046       .  S
N4107      H4128   1.046       .  S
C4109      C4112   1.403       .  A
C4109      C4116   1.405       .  A
N4110      H4125   1.046       .  S
N4110      H4126   1.046       .  S
C4112      C4113   1.407       .  A
C4112      H4117   1.084       .  S
C4113      C4114   1.413       .  A
C4113      N4118   1.437       .  S
C4114      C4115   1.408       .  A
C4115      C4116   1.400       .  A
C4115      H4119   1.083       .  S
C4116      N4120   1.438       .  S
N4118      H4121   1.046       .  S
N4118      H4122   1.046       .  S
N4120      H4123   1.046       .  S
N4120      H4124   1.046       .  S
C4129      C4130   1.414       .  A
C4129      C4134   1.409       .  A
C4130      C4131   1.407       .  A
C4130      N4135   1.437       .  S
C4131      C4132   1.403       .  A
C4131      H4136   1.084       .  S
C4132      C4137   1.481       .  S
C4132      C4133   1.407       .  A
C4133      C4134   1.403       .  A
C4133      N4138   1.438       .  S
C4134      H4139   1.084       .  S
N4135      H4155   1.046       .  S
N4135      H4156   1.046       .  S
C4137      C4140   1.403       .  A
C4137      C4144   1.407       .  A
N4138      H4153   1.046       .  S
N4138      H4154   1.046       .  S
C4140      C4141   1.407       .  A
C4140      H4145   1.084       .  S
C4141      C4142   1.413       .  A
C4141      N4146   1.437       .  S
C4142      C4143   1.408       .  A
C4143      C4144   1.403       .  A
C4143      H4147   1.084       .  S
C4144      N4148   1.438       .  S
N4146      H4149   1.046       .  S
N4146      H4150   1.046       .  S
N4148      H4151   1.046       .  S
N4148      H4152   1.046       .  S
C4157      C4158   1.419       .  A
C4157      C4162   1.411       .  A
C4158      C4159   1.401       .  A
C4158      N4163   1.433       .  S
C4159      C4160   1.401       .  A
C4159      H4164   1.084       .  S
C4160      C4165   1.494   1_556  S
C4160      C4161   1.412       .  A
C4161      C4162   1.414       .  A
C4161      N4166   1.437       .  S
C4162      H4167   1.083       .  S
N4163      H4183   1.046       .  S
N4163      H4184   1.046       .  S
C4165      C4168   1.404       .  A
C4165      C4172   1.412       .  A
N4166      H4181   1.046       .  S
N4166      H4182   1.045       .  S
C4168      C4169   1.411       .  A
C4168      H4173   1.083       .  S
C4169      C4170   1.416       .  A
C4169      N4174   1.438       .  S
C4170      C4171   1.405       .  A
C4171      C4172   1.406       .  A
C4171      H4175   1.084       .  S
C4172      N4176   1.438       .  S
N4174      H4177   1.046       .  S
N4174      H4178   1.046       .  S
N4176      H4179   1.046       .  S
N4176      H4180   1.046       .  S
C4185      C4186   1.411       .  A
C4185      C4190   1.404       .  A
C4186      C4187   1.409       .  A
C4186      N4191   1.438       .  S
C4187      C4188   1.403       .  A
C4187      H4192   1.084       .  S
C4188      C4193   1.482       .  S
C4188      C4189   1.408       .  A
C4189      C4190   1.404       .  A
C4189      N4194   1.438       .  S
C4190      H4195   1.084       .  S
N4191      H4211   1.045       .  S
N4191      H4212   1.045       .  S
C4193      C4196   1.399       .  A
C4193      C4200   1.410       .  A
N4194      H4209   1.046       .  S
N4194      H4210   1.045       .  S
C4196      C4197   1.405       .  A
C4196      H4201   1.084       .  S
C4197      C4198   1.416       .  A
C4197      N4202   1.438       .  S
C4198      C4199   1.407       .  A
C4199      C4200   1.411       .  A
C4199      H4203   1.084       .  S
C4200      N4204   1.438       .  S
N4202      H4205   1.046       .  S
N4202      H4206   1.046       .  S
N4204      H4207   1.046       .  S
N4204      H4208   1.045       .  S
C4213      C4214   1.414       .  A
C4213      C4218   1.403       .  A
C4214      C4215   1.404       .  A
C4214      N4219   1.438       .  S
C4215      C4216   1.399       .  A
C4215      H4220   1.084       .  S
C4216      C4221   1.475       .  S
C4216      C4217   1.409       .  A
C4217      C4218   1.405       .  A
C4217      N4222   1.438       .  S
C4218      H4223   1.084       .  S
N4219      H4239   1.046       .  S
N4219      H4240   1.046       .  S
C4221      C4224   1.402       .  A
C4221      C4228   1.405       .  A
N4222      H4237   1.046       .  S
N4222      H4238   1.045       .  S
C4224      C4225   1.408       .  A
C4224      H4229   1.084       .  S
C4225      C4226   1.415       .  A
C4225      N4230   1.438       .  S
C4226      C4227   1.408       .  A
C4227      C4228   1.402       .  A
C4227      H4231   1.084       .  S
C4228      N4232   1.438       .  S
N4230      H4233   1.046       .  S
N4230      H4234   1.045       .  S
N4232      H4235   1.046       .  S
N4232      H4236   1.045       .  S
C4241      C4242   1.414       .  A
C4241      C4246   1.412       .  A
C4242      C4243   1.412       .  A
C4242      N4247   1.437       .  S
C4243      C4244   1.405       .  A
C4243      H4248   1.084       .  S
C4244      C4249   1.482       .  S
C4244      C4245   1.404       .  A
C4245      C4246   1.401       .  A
C4245      N4250   1.438       .  S
C4246      H4251   1.083       .  S
N4247      H4267   1.046       .  S
N4247      H4268   1.046       .  S
C4249      C4252   1.405       .  A
C4249      C4256   1.404       .  A
N4250      H4265   1.046       .  S
N4250      H4266   1.046       .  S
C4252      C4253   1.413       .  A
C4252      H4257   1.084       .  S
C4253      C4254   1.415       .  A
C4253      N4258   1.437       .  S
C4254      C4255   1.410       .  A
C4255      C4256   1.401       .  A
C4255      H4259   1.083       .  S
C4256      N4260   1.438       .  S
N4258      H4261   1.046       .  S
N4258      H4262   1.046       .  S
N4260      H4263   1.046       .  S
N4260      H4264   1.045       .  S
C4269      C4270   1.410       .  A
C4269      C4274   1.402       .  A
C4270      C4271   1.410       .  A
C4270      N4275   1.438       .  S
C4271      C4272   1.409       .  A
C4271      H4276   1.083       .  S
C4272      C4277   1.502       .  S
C4272      C4273   1.416       .  A
C4273      C4274   1.408       .  A
C4273      N4278   1.438       .  S
C4274      H4279   1.084       .  S
N4275      H4295   1.046       .  S
N4275      H4296   1.046       .  S
C4277      C4280   1.405       .  A
C4277      C4284   1.417       .  A
N4278      H4293   1.046       .  S
N4278      H4294   1.046       .  S
C4280      C4281   1.407       .  A
C4280      H4285   1.083       .  S
C4281      C4282   1.414       .  A
C4281      N4286   1.438       .  S
C4282      C4283   1.404       .  A
C4283      C4284   1.412       .  A
C4283      H4287   1.084       .  S
C4284      N4288   1.437       .  S
N4286      H4289   1.046       .  S
N4286      H4290   1.045       .  S
N4288      H4291   1.046       .  S
N4288      H4292   1.046       .  S
C4297      C4298   1.415       .  A
C4297      C4302   1.405       .  A
C4298      C4299   1.411       .  A
C4298      N4303   1.438       .  S
C4299      C4300   1.403       .  A
C4299      H4304   1.083       .  S
C4300      C4305   1.484       .  S
C4300      C4301   1.409       .  A
C4301      C4302   1.403       .  A
C4301      N4306   1.438       .  S
C4302      H4307   1.084       .  S
N4303      H4323   1.046       .  S
N4303      H4324   1.046       .  S
C4305      C4308   1.401       .  A
C4305      C4312   1.409       .  A
N4306      H4321   1.046       .  S
N4306      H4322   1.046       .  S
C4308      C4309   1.406       .  A
C4308      H4313   1.084       .  S
C4309      C4310   1.416       .  A
C4309      N4314   1.438       .  S
C4310      C4311   1.408       .  A
C4311      C4312   1.409       .  A
C4311      H4315   1.083       .  S
C4312      N4316   1.438       .  S
N4314      H4317   1.046       .  S
N4314      H4318   1.046       .  S
N4316      H4319   1.046       .  S
N4316      H4320   1.046       .  S
C4325      C4326   1.409       .  A
C4325      C4330   1.403       .  A
C4326      C4327   1.406       .  A
C4326      N4331   1.438       .  S
C4327      C4328   1.406       .  A
C4327      H4332   1.083       .  S
C4328      C4333   1.490       .  S
C4328      C4329   1.413       .  A
C4329      C4330   1.405       .  A
C4329      N4334   1.438       .  S
C4330      H4335   1.084       .  S
N4331      H4351   1.046       .  S
N4331      H4352   1.046       .  S
C4333      C4336   1.403       .  A
C4333      C4340   1.415       .  A
N4334      H4349   1.046       .  S
N4334      H4350   1.046       .  S
C4336      C4337   1.403       .  A
C4336      H4341   1.083       .  S
C4337      C4338   1.411       .  A
C4337      N4342   1.438       .  S
C4338      C4339   1.401       .  A
C4339      C4340   1.407       .  A
C4339      H4343   1.084       .  S
C4340      N4344   1.438       .  S
N4342      H4345   1.046       .  S
N4342      H4346   1.045       .  S
N4344      H4347   1.046       .  S
N4344      H4348   1.046       .  S
C4353      C4354   1.417       .  A
C4353      C4358   1.407       .  A
C4354      C4355   1.402       .  A
C4354      N4359   1.439       .  S
C4355      C4356   1.400       .  A
C4355      H4360   1.084       .  S
C4356      C4361   1.475       .  S
C4356      C4357   1.405       .  A
C4357      C4358   1.402       .  A
C4357      N4362   1.438       .  S
C4358      H4363   1.083       .  S
N4359      H4379   1.046       .  S
N4359      H4380   1.046       .  S
C4361      C4364   1.402       .  A
C4361      C4368   1.406       .  A
N4362      H4377   1.046       .  S
N4362      H4378   1.046       .  S
C4364      C4365   1.406       .  A
C4364      H4369   1.084       .  S
C4365      C4366   1.413       .  A
C4365      N4370   1.437       .  S
C4366      C4367   1.406       .  A
C4367      C4368   1.399       .  A
C4367      H4371   1.084       .  S
C4368      N4372   1.438       .  S
N4370      H4373   1.046       .  S
N4370      H4374   1.046       .  S
N4372      H4375   1.046       .  S
N4372      H4376   1.046       .  S
C4381      C4382   1.418       .  A
C4381      C4386   1.407       .  A
C4382      C4383   1.408       .  A
C4382      N4387   1.438       .  S
C4383      C4384   1.404       .  A
C4383      H4388   1.084       .  S
C4384      C4389   1.500       .  S
C4384      C4385   1.414       .  A
C4385      C4386   1.414       .  A
C4385      N4390   1.437       .  S
C4386      H4391   1.083       .  S
N4387      H4407   1.046       .  S
N4387      H4408   1.046       .  S
C4389      C4392   1.407       .  A
C4389      C4396   1.414       .  A
N4390      H4405   1.046       .  S
N4390      H4406   1.045       .  S
C4392      C4393   1.415       .  A
C4392      H4397   1.083       .  S
C4393      C4394   1.417       .  A
C4393      N4398   1.437       .  S
C4394      C4395   1.406       .  A
C4395      C4396   1.406       .  A
C4395      H4399   1.084       .  S
C4396      N4400   1.438       .  S
N4398      H4401   1.046       .  S
N4398      H4402   1.046       .  S
N4400      H4403   1.046       .  S
N4400      H4404   1.046       .  S
C4409      C4410   1.414       .  A
C4409      C4414   1.409       .  A
C4410      C4411   1.406       .  A
C4410      N4415   1.437       .  S
C4411      C4412   1.403       .  A
C4411      H4416   1.084       .  S
C4412      C4417   1.475       .  S
C4412      C4413   1.404       .  A
C4413      C4414   1.400       .  A
C4413      N4418   1.439       .  S
C4414      H4419   1.084       .  S
N4415      H4435   1.045       .  S
N4415      H4436   1.046       .  S
C4417      C4420   1.403       .  A
C4417      C4424   1.406       .  A
N4418      H4433   1.046       .  S
N4418      H4434   1.046       .  S
C4420      C4421   1.405       .  A
C4420      H4425   1.084       .  S
C4421      C4422   1.413       .  A
C4421      N4426   1.438       .  S
C4422      C4423   1.406       .  A
C4423      C4424   1.399       .  A
C4423      H4427   1.084       .  S
C4424      N4428   1.438       .  S
N4426      H4429   1.046       .  S
N4426      H4430   1.045       .  S
N4428      H4431   1.046       .  S
N4428      H4432   1.046       .  S
C4437      C4438   1.415       .  A
C4437      C4442   1.409       .  A
C4438      C4439   1.405       .  A
C4438      N4443   1.438       .  S
C4439      C4440   1.403       .  A
C4439      H4444   1.084       .  S
C4440      C4445   1.485       .  S
C4440      C4441   1.408       .  A
C4441      C4442   1.404       .  A
C4441      N4446   1.438       .  S
C4442      H4447   1.084       .  S
N4443      H4463   1.045       .  S
N4443      H4464   1.046       .  S
C4445      C4448   1.405       .  A
C4445      C4452   1.408       .  A
N4446      H4461   1.046       .  S
N4446      H4462   1.045       .  S
C4448      C4449   1.407       .  A
C4448      H4453   1.083       .  S
C4449      C4450   1.414       .  A
C4449      N4454   1.438       .  S
C4450      C4451   1.407       .  A
C4451      C4452   1.400       .  A
C4451      H4455   1.083       .  S
C4452      N4456   1.438       .  S
N4454      H4457   1.046       .  S
N4454      H4458   1.045       .  S
N4456      H4459   1.046       .  S
N4456      H4460   1.046       .  S
C4465      C4466   1.413       .  A
C4465      C4470   1.410       .  A
C4466      C4467   1.409       .  A
C4466      N4471   1.437       .  S
C4467      C4468   1.403       .  A
C4467      H4472   1.084       .  S
C4468      C4473   1.477       .  S
C4468      C4469   1.405       .  A
C4469      C4470   1.402       .  A
C4469      N4474   1.439       .  S
C4470      H4475   1.084       .  S
N4471      H4491   1.046       .  S
N4471      H4492   1.046       .  S
C4473      C4476   1.400       .  A
C4473      C4480   1.404       .  A
N4474      H4489   1.046       .  S
N4474      H4490   1.045       .  S
C4476      C4477   1.409       .  A
C4476      H4481   1.084       .  S
C4477      C4478   1.419       .  A
C4477      N4482   1.437       .  S
C4478      C4479   1.412       .  A
C4479      C4480   1.401       .  A
C4479      H4483   1.083       .  S
C4480      N4484   1.439       .  S
N4482      H4485   1.046       .  S
N4482      H4486   1.046       .  S
N4484      H4487   1.046       .  S
N4484      H4488   1.045       .  S
C4493      C4494   1.412       .  A
C4493      C4498   1.403       .  A
C4494      C4495   1.406       .  A
C4494      N4499   1.438       .  S
C4495      C4496   1.403       .  A
C4495      H4500   1.084       .  S
C4496      C4501   1.474       .  S
C4496      C4497   1.406       .  A
C4497      C4498   1.399       .  A
C4497      N4502   1.438       .  S
C4498      H4503   1.084       .  S
N4499      H4519   1.046       .  S
N4499      H4520   1.046       .  S
C4501      C4504   1.402       .  A
C4501      C4508   1.407       .  A
N4502      H4517   1.046       .  S
N4502      H4518   1.046       .  S
C4504      C4505   1.402       .  A
C4504      H4509   1.084       .  S
C4505      C4506   1.411       .  A
C4505      N4510   1.438       .  S
C4506      C4507   1.405       .  A
C4507      C4508   1.402       .  A
C4507      H4511   1.084       .  S
C4508      N4512   1.438       .  S
N4510      H4513   1.046       .  S
N4510      H4514   1.046       .  S
N4512      H4515   1.046       .  S
N4512      H4516   1.046       .  S
C4521      C4522   1.416       .  A
C4521      C4526   1.408       .  A
C4522      C4523   1.403       .  A
C4522      N4527   1.439       .  S
C4523      C4524   1.402       .  A
C4523      H4528   1.084       .  S
C4524      C4529   1.490   1_556  S
C4524      C4525   1.411       .  A
C4525      C4526   1.412       .  A
C4525      N4530   1.437       .  S
C4526      H4531   1.083       .  S
N4527      H4547   1.046       .  S
N4527      H4548   1.046       .  S
C4529      C4532   1.404       .  A
C4529      C4536   1.408       .  A
N4530      H4545   1.046       .  S
N4530      H4546   1.046       .  S
C4532      C4533   1.413       .  A
C4532      H4537   1.084       .  S
C4533      C4534   1.419       .  A
C4533      N4538   1.436       .  S
C4534      C4535   1.409       .  A
C4535      C4536   1.403       .  A
C4535      H4539   1.083       .  S
C4536      N4540   1.438       .  S
N4538      H4541   1.046       .  S
N4538      H4542   1.045       .  S
N4540      H4543   1.046       .  S
N4540      H4544   1.045       .  S
C4549      C4550   1.412       .  A
C4549      C4554   1.402       .  A
C4550      C4551   1.410       .  A
C4550      N4555   1.438       .  S
C4551      C4552   1.408       .  A
C4551      H4556   1.083       .  S
C4552      C4557   1.501       .  S
C4552      C4553   1.416       .  A
C4553      C4554   1.406       .  A
C4553      N4558   1.438       .  S
C4554      H4559   1.084       .  S
N4555      H4575   1.045       .  S
N4555      H4576   1.046       .  S
C4557      C4560   1.406       .  A
C4557      C4564   1.417       .  A
N4558      H4573   1.046       .  S
N4558      H4574   1.046       .  S
C4560      C4561   1.407       .  A
C4560      H4565   1.083       .  S
C4561      C4562   1.412       .  A
C4561      N4566   1.438       .  S
C4562      C4563   1.405       .  A
C4563      C4564   1.411       .  A
C4563      H4567   1.084       .  S
C4564      N4568   1.438       .  S
N4566      H4569   1.046       .  S
N4566      H4570   1.045       .  S
N4568      H4571   1.046       .  S
N4568      H4572   1.045       .  S
C4577      C4578   1.412       .  A
C4577      C4582   1.404       .  A
C4578      C4579   1.401       .  A
C4578      N4583   1.438       .  S
C4579      C4580   1.402       .  A
C4579      H4584   1.084       .  S
C4580      C4585   1.479       .  S
C4580      C4581   1.410       .  A
C4581      C4582   1.403       .  A
C4581      N4586   1.438       .  S
C4582      H4587   1.084       .  S
N4583      H4603   1.046       .  S
N4583      H4604   1.046       .  S
C4585      C4588   1.403       .  A
C4585      C4592   1.409       .  A
N4586      H4601   1.046       .  S
N4586      H4602   1.046       .  S
C4588      C4589   1.403       .  A
C4588      H4593   1.084       .  S
C4589      C4590   1.412       .  A
C4589      N4594   1.438       .  S
C4590      C4591   1.403       .  A
C4591      C4592   1.401       .  A
C4591      H4595   1.084       .  S
C4592      N4596   1.438       .  S
N4594      H4597   1.046       .  S
N4594      H4598   1.046       .  S
N4596      H4599   1.046       .  S
N4596      H4600   1.046       .  S
C4605      C4606   1.423       .  A
C4605      C4610   1.408       .  A
C4606      C4607   1.406       .  A
C4606      N4611   1.438       .  S
C4607      C4608   1.399       .  A
C4607      H4612   1.084       .  S
C4608      C4613   1.487       .  S
C4608      C4609   1.410       .  A
C4609      C4610   1.408       .  A
C4609      N4614   1.438       .  S
C4610      H4615   1.083       .  S
N4611      H4631   1.046       .  S
N4611      H4632   1.046       .  S
C4613      C4616   1.401       .  A
C4613      C4620   1.411       .  A
N4614      H4629   1.046       .  S
N4614      H4630   1.046       .  S
C4616      C4617   1.405       .  A
C4616      H4621   1.084       .  S
C4617      C4618   1.416       .  A
C4617      N4622   1.438       .  S
C4618      C4619   1.407       .  A
C4619      C4620   1.408       .  A
C4619      H4623   1.084       .  S
C4620      N4624   1.438       .  S
N4622      H4625   1.046       .  S
N4622      H4626   1.046       .  S
N4624      H4627   1.046       .  S
N4624      H4628   1.045       .  S
C4633      C4634   1.422       .  A
C4633      C4638   1.411       .  A
C4634      C4635   1.404       .  A
C4634      N4639   1.438       .  S
C4635      C4636   1.401       .  A
C4635      H4640   1.084       .  S
C4636      C4641   1.488   1_556  S
C4636      C4637   1.408       .  A
C4637      C4638   1.408       .  A
C4637      N4642   1.437       .  S
C4638      H4643   1.083       .  S
N4639      H4659   1.046       .  S
N4639      H4660   1.046       .  S
C4641      C4644   1.404       .  A
C4641      C4648   1.411       .  A
N4642      H4657   1.046       .  S
N4642      H4658   1.046       .  S
C4644      C4645   1.408       .  A
C4644      H4649   1.084       .  S
C4645      C4646   1.414       .  A
C4645      N4650   1.437       .  S
C4646      C4647   1.403       .  A
C4647      C4648   1.405       .  A
C4647      H4651   1.084       .  S
C4648      N4652   1.437       .  S
N4650      H4653   1.046       .  S
N4650      H4654   1.045       .  S
N4652      H4655   1.046       .  S
N4652      H4656   1.046       .  S
C4661      C4662   1.413       .  A
C4661      C4666   1.408       .  A
C4662      C4663   1.409       .  A
C4662      N4667   1.438       .  S
C4663      C4664   1.405       .  A
C4663      H4668   1.084       .  S
C4664      C4669   1.480       .  S
C4664      C4665   1.405       .  A
C4665      C4666   1.399       .  A
C4665      N4670   1.438       .  S
C4666      H4671   1.084       .  S
N4667      H4687   1.045       .  S
N4667      H4688   1.046       .  S
C4669      C4672   1.404       .  A
C4669      C4676   1.406       .  A
N4670      H4685   1.046       .  S
N4670      H4686   1.046       .  S
C4672      C4673   1.408       .  A
C4672      H4677   1.084       .  S
C4673      C4674   1.413       .  A
C4673      N4678   1.438       .  S
C4674      C4675   1.407       .  A
C4675      C4676   1.400       .  A
C4675      H4679   1.084       .  S
C4676      N4680   1.438       .  S
N4678      H4681   1.046       .  S
N4678      H4682   1.045       .  S
N4680      H4683   1.046       .  S
N4680      H4684   1.046       .  S
C4689      C4690   1.416       .  A
C4689      C4694   1.411       .  A
C4690      C4691   1.410       .  A
C4690      N4695   1.438       .  S
C4691      C4692   1.405       .  A
C4691      H4696   1.084       .  S
C4692      C4697   1.483       .  S
C4692      C4693   1.405       .  A
C4693      C4694   1.400       .  A
C4693      N4698   1.439       .  S
C4694      H4699   1.083       .  S
N4695      H4715   1.046       .  S
N4695      H4716   1.046       .  S
C4697      C4700   1.404       .  A
C4697      C4704   1.406       .  A
N4698      H4713   1.045       .  S
N4698      H4714   1.046       .  S
C4700      C4701   1.408   1_545  A
C4700      H4705   1.084       .  S
C4701      C4702   1.415       .  A
C4701      N4706   1.438       .  S
C4702      C4703   1.407       .  A
C4703      C4704   1.402   1_565  A
C4703      H4707   1.084       .  S
C4704      N4708   1.438       .  S
N4706      H4709   1.046       .  S
N4706      H4710   1.045       .  S
N4708      H4711   1.046       .  S
N4708      H4712   1.046       .  S
C4717      C4718   1.411       .  A
C4717      C4722   1.399       .  A
C4718      C4719   1.405       .  A
C4718      N4723   1.438       .  S
C4719      C4720   1.404       .  A
C4719      H4724   1.083       .  S
C4720      C4725   1.492       .  S
C4720      C4721   1.416       .  A
C4721      C4722   1.406       .  A
C4721      N4726   1.438       .  S
C4722      H4727   1.084       .  S
N4723      H4743   1.045       .  S
N4723      H4744   1.046       .  S
C4725      C4728   1.406       .  A
C4725      C4732   1.413       .  A
N4726      H4741   1.046       .  S
N4726      H4742   1.046       .  S
C4728      C4729   1.405       .  A
C4728      H4733   1.083       .  S
C4729      C4730   1.410       .  A
C4729      N4734   1.438       .  S
C4730      C4731   1.405       .  A
C4731      C4732   1.406       .  A
C4731      H4735   1.084       .  S
C4732      N4736   1.438       .  S
N4734      H4737   1.046       .  S
N4734      H4738   1.045       .  S
N4736      H4739   1.046       .  S
N4736      H4740   1.046       .  S
C4745      C4746   1.414       .  A
C4745      C4750   1.406       .  A
C4746      C4747   1.407       .  A
C4746      N4751   1.438       .  S
C4747      C4748   1.403       .  A
C4747      H4752   1.084       .  S
C4748      C4753   1.483       .  S
C4748      C4749   1.408       .  A
C4749      C4750   1.402       .  A
C4749      N4754   1.438       .  S
C4750      H4755   1.084       .  S
N4751      H4771   1.046       .  S
N4751      H4772   1.046       .  S
C4753      C4756   1.403       .  A
C4753      C4760   1.408       .  A
N4754      H4769   1.046       .  S
N4754      H4770   1.046       .  S
C4756      C4757   1.405       .  A
C4756      H4761   1.084       .  S
C4757      C4758   1.414       .  A
C4757      N4762   1.438       .  S
C4758      C4759   1.407       .  A
C4759      C4760   1.404       .  A
C4759      H4763   1.084       .  S
C4760      N4764   1.438       .  S
N4762      H4765   1.046       .  S
N4762      H4766   1.046       .  S
N4764      H4767   1.046       .  S
N4764      H4768   1.046       .  S
C4773      C4774   1.416       .  A
C4773      C4778   1.409       .  A
C4774      C4775   1.412       .  A
C4774      N4779   1.438       .  S
C4775      C4776   1.405       .  A
C4775      H4780   1.084       .  S
C4776      C4781   1.488       .  S
C4776      C4777   1.407       .  A
C4777      C4778   1.406       .  A
C4777      N4782   1.438       .  S
C4778      H4783   1.083       .  S
N4779      H4799   1.046       .  S
N4779      H4800   1.046       .  S
C4781      C4784   1.404       .  A
C4781      C4788   1.406       .  A
N4782      H4797   1.046       .  S
N4782      H4798   1.046       .  S
C4784      C4785   1.412       .  A
C4784      H4789   1.084       .  S
C4785      C4786   1.417       .  A
C4785      N4790   1.437       .  S
C4786      C4787   1.410       .  A
C4787      C4788   1.407       .  A
C4787      H4791   1.083       .  S
C4788      N4792   1.438       .  S
N4790      H4793   1.046       .  S
N4790      H4794   1.045       .  S
N4792      H4795   1.045       .  S
N4792      H4796   1.046       .  S
