geometry optimzed in LAMMPS
_audit_creation_date              2020-12-01 
_audit_creation_method            'lammps2cif' 
_symmetry_space_group_name_H-M    'P1' 
_symmetry_Int_Tables_number       1 
_symmetry_cell_setting            triclinic 
loop_ 
_symmetry_equiv_pos_as_xyz 
  x,y,z 
_cell_length_a                    57.93257256 
_cell_length_b                    69.18017129832535 
_cell_length_c                    47.473823553474084 
_cell_angle_alpha                 89.99921258623199 
_cell_angle_beta                  90.02291874759588 
_cell_angle_gamma                 89.80332586923706 
loop_ 
_atom_site_label 
_atom_site_type_symbol 
_atom_site_fract_x 
_atom_site_fract_y 
_atom_site_fract_z 
_atom_site_charge 
Zr1        Zr  0.35265627  0.52231495  0.62859322     2.17500
O2          O  0.37637076  0.54578025  0.65368782    -0.51400
O3          O  0.32903293  0.51647486  0.67051219    -0.74600
O4          O  0.33518577  0.55459119  0.63014839    -0.81400
O5          O  0.39942331  0.48395076  0.63773191    -0.83200
O6          O  0.31633648  0.56030502  0.58893135    -0.78800
O7          O  0.38683487  0.51278523  0.65501934    -0.90400
O8          O  0.30264486  0.49348125  0.65947153    -0.76400
O9          O  0.31489407  0.51779497  0.61026337    -0.85900
O10         O  0.34593656  0.48828868  0.63006290    -0.85600
O11         O  0.35411042  0.53517399  0.58148259    -0.72300
O12         O  0.38164076  0.50788842  0.59896556    -0.84500
Zr13       Zr  0.33689605  0.48174639  0.53430562     2.26400
Zr14       Zr  0.31607451  0.53004018  0.56315034     2.06300
Zr15       Zr  0.37412666  0.47397540  0.59968270     2.10000
Zr16       Zr  0.30829715  0.48385109  0.61107478     1.78800
O17         O  0.41351121  0.46149544  0.59887838    -0.93300
O18         O  0.26851200  0.49526912  0.61417125    -0.41100
O19         O  0.33629183  0.46850673  0.58117458    -0.77700
O20         O  0.30784839  0.49604819  0.56401387    -0.96400
O21         O  0.34441389  0.51557838  0.53314223    -0.89700
O22         O  0.37481739  0.48627371  0.55259074    -0.92500
C23         C  0.31187212  0.50548281  0.67657996     1.01200
C24         C  0.40105169  0.49850327  0.65435760     1.14200
C25         C  0.32386021  0.56554732  0.61313804     1.04900
O26         O  0.27599932  0.53685516  0.57513372    -0.94700
O27         O  0.29397862  0.52276279  0.52116329    -0.90400
O28         O  0.30407842  0.49267318  0.50597480    -0.83600
C29         C  0.29180083  0.50816791  0.50472190     1.11600
O30         O  0.40997070  0.54371049  0.56820376    -0.96700
Zr31       Zr  0.38215043  0.51986966  0.55172038     1.88900
O32         O  0.35777346  0.48987515  0.49142850    -0.73300
O33         O  0.31951874  0.55692583  0.53025664    -0.52600
O34         O  0.37995938  0.55005635  0.52539307    -0.97200
O35         O  0.42173544  0.50768772  0.55155918    -0.54500
O36         O  0.38742947  0.50980192  0.50301646    -0.73800
C37         C  0.37596621  0.49956068  0.48536778     0.98500
O38         O  0.31616510  0.45475864  0.51317307    -0.62600
O39         O  0.36278279  0.44742997  0.63035910    -0.57400
O40         O  0.35653991  0.45051487  0.52973306    -0.94100
O41         O  0.38114066  0.44772111  0.56697010    -0.92600
O42         O  0.30999159  0.45302463  0.63580963    -0.92900
O43         O  0.27975546  0.46067526  0.59465421    -0.91700
C44         C  0.37251975  0.44178049  0.54366472     1.17400
H45         H  0.34732242  0.48321659  0.64894935     0.33300
H46         H  0.29255296  0.49359176  0.55681860     0.44200
H47         H  0.38625072  0.47973935  0.54122436     0.37700
H48         H  0.35780469  0.54877448  0.58196573     0.34200
H49         H  0.26204517  0.48870176  0.63092624     0.26000
H50         H  0.33305931  0.56432718  0.53692390     0.31900
H51         H  0.39067947  0.54832933  0.50934637     0.37800
H52         H  0.31547924  0.45618801  0.65500904     0.32300
H53         H  0.35431944  0.43843876  0.61787383     0.31100
H54         H  0.41348723  0.45022007  0.61172538     0.32800
H55         H  0.42350225  0.50063706  0.53354183     0.31800
H56         H  0.28604247  0.45580779  0.57659762     0.35800
H57         H  0.30016569  0.45582752  0.52035395     0.28500
H58         H  0.36628024  0.55151551  0.66832192     0.32700
H59         H  0.42087323  0.54561041  0.55238769     0.35600
H60         H  0.37734497  0.44055951  0.63481722     0.28200
H61         H  0.31505733  0.45776139  0.49281935     0.41100
H62         H  0.27341632  0.55037378  0.56901527     0.31100
H63         H  0.26969555  0.50899851  0.61986022     0.38800
H64         H  0.42196429  0.49745114  0.56613582     0.30600
H65         H  0.32476731  0.55098462  0.51238636     0.30700
H66         H  0.37924553  0.55634526  0.64006564     0.30900
Zr67       Zr  0.35504181  0.74003199  0.65417386     2.17500
O68         O  0.37410368  0.71929098  0.61957786    -0.51400
O69         O  0.33109472  0.74784724  0.61304152    -0.74600
O70         O  0.33932994  0.70730946  0.65191866    -0.81400
O71         O  0.40302513  0.77793526  0.64786006    -0.83200
O72         O  0.31702180  0.70154719  0.69033308    -0.78800
O73         O  0.39174215  0.74835273  0.63231327    -0.90400
O74         O  0.30315600  0.76919096  0.62569763    -0.76400
O75         O  0.31718188  0.74474255  0.67230483    -0.85900
O76         O  0.34906338  0.77417477  0.65480174    -0.85600
O77         O  0.35604364  0.72543047  0.70037140    -0.72300
O78         O  0.38428817  0.75271892  0.68500784    -0.84500
Zr79       Zr  0.33904514  0.77784768  0.75053219     2.26400
Zr80       Zr  0.31787684  0.73082454  0.71853023     2.06300
Zr81       Zr  0.37751206  0.78679182  0.68642661     2.10000
Zr82       Zr  0.31134383  0.77886230  0.67350131     1.78800
O83         O  0.41717917  0.79728691  0.69363380    -0.93300
O84         O  0.27030895  0.77128116  0.67160932    -0.41100
O85         O  0.33953592  0.79253767  0.70457213    -0.77700
O86         O  0.31008570  0.76496541  0.71939930    -0.96400
O87         O  0.34611346  0.74392168  0.74987644    -0.89700
O88         O  0.37715053  0.77326544  0.73284277    -0.92500
C89         C  0.31300602  0.75807099  0.60781369     1.01200
C90         C  0.40548305  0.76288673  0.63232261     1.14200
C91         C  0.32629392  0.69644420  0.66694080     1.04900
O92         O  0.27782371  0.72315438  0.70792843    -0.94700
O93         O  0.29447475  0.73763796  0.75960901    -0.90400
O94         O  0.30464845  0.76734861  0.77594375    -0.83600
C95         C  0.29191391  0.75217342  0.77607600     1.11600
O96         O  0.41263016  0.71623348  0.71525324    -0.96700
Zr97       Zr  0.38395824  0.73953183  0.73162409     1.88900
O98         O  0.35860006  0.76718373  0.79327376    -0.73300
O99         O  0.32227285  0.70434042  0.75193473    -0.52600
O100        O  0.38087642  0.70880413  0.75643308    -0.97200
O101        O  0.42367000  0.75110514  0.73357457    -0.54500
O102        O  0.38881095  0.74794034  0.78097961    -0.73800
C103        C  0.37672469  0.75724872  0.79911796     0.98500
O104        O  0.32120388  0.80420019  0.77701574    -0.62600
O105        O  0.36953794  0.81429194  0.65584853    -0.57400
O106        O  0.35760103  0.80940014  0.75570038    -0.94100
O107        O  0.38311028  0.81290847  0.71959876    -0.92600
O108        O  0.31505157  0.80862742  0.64656476    -0.92900
O109        O  0.28674667  0.80407955  0.69321692    -0.91700
C110        C  0.37362418  0.81853042  0.74256026     1.17400
H111        H  0.35064192  0.77974255  0.63624282     0.33300
H112        H  0.29464680  0.76750050  0.72607474     0.44200
H113        H  0.38839230  0.77945754  0.74482421     0.37700
H114        H  0.35957972  0.71180198  0.69923141     0.34200
H115        H  0.26404655  0.77958524  0.65640591     0.26000
H116        H  0.30835788  0.69628732  0.74916410     0.31900
H117        H  0.37355984  0.71198751  0.77470705     0.37800
H118        H  0.30086815  0.80924866  0.63494637     0.32300
H119        H  0.36411128  0.82461875  0.66870565     0.31100
H120        H  0.41904339  0.80871689  0.68129636     0.32800
H121        H  0.42441741  0.75964806  0.75027469     0.31800
H122        H  0.28973322  0.80363352  0.71374750     0.35800
H123        H  0.30439949  0.80345312  0.77339121     0.28500
H124        H  0.36173988  0.71429062  0.60716675     0.32700
H125        H  0.42196662  0.71288842  0.73205746     0.35600
H126        H  0.38492044  0.81868482  0.64947271     0.28200
H127        H  0.32309103  0.80060983  0.79708568     0.41100
H128        H  0.26984198  0.73582879  0.70759756     0.31100
H129        H  0.26960262  0.75801678  0.66383252     0.38800
H130        H  0.42508534  0.75997471  0.71730563     0.30600
H131        H  0.33511770  0.69641825  0.74439311     0.30700
H132        H  0.37981181  0.70789815  0.63016248     0.30900
Zr133      Zr  0.45305495  0.52182101  0.15280376     2.17500
O134        O  0.43372401  0.54154608  0.11721741    -0.51400
O135        O  0.47833739  0.51536428  0.11227140    -0.74600
O136        O  0.46661672  0.55530970  0.15251084    -0.81400
O137        O  0.40628512  0.48321311  0.14507190    -0.83200
O138        O  0.48842661  0.56069379  0.19148314    -0.78800
O139        O  0.41617815  0.51347147  0.13104160    -0.90400
O140        O  0.50647079  0.49434015  0.12550300    -0.76400
O141        O  0.49079558  0.51782721  0.17177658    -0.85900
O142        O  0.46083887  0.48789129  0.15237104    -0.85600
O143        O  0.45053868  0.53548933  0.19957619    -0.72300
O144        O  0.42418422  0.50747033  0.18248829    -0.84500
Zr145      Zr  0.46890050  0.48306232  0.24877564     2.26400
Zr146      Zr  0.48864736  0.53099925  0.21829092     2.06300
Zr147      Zr  0.43260490  0.47366459  0.18263712     2.10000
Zr148      Zr  0.49817926  0.48388449  0.17265058     1.78800
O149        O  0.39440403  0.45908414  0.18146096    -0.93300
O150        O  0.53877387  0.49304398  0.17249876    -0.41100
O151        O  0.47016654  0.46885659  0.20247548    -0.77700
O152        O  0.49784795  0.49715593  0.21899416    -0.96400
O153        O  0.46042541  0.51675867  0.24859078    -0.89700
O154        O  0.43105970  0.48648231  0.22954406    -0.92500
C155        C  0.49674810  0.50542454  0.10751155     1.01200
C156        C  0.40291996  0.49862120  0.13053443     1.14200
C157        C  0.47902209  0.56614517  0.16839123     1.04900
O158        O  0.52860602  0.53842510  0.20668010    -0.94700
O159        O  0.51081933  0.52518411  0.26040203    -0.90400
O160        O  0.50110470  0.49538787  0.27677225    -0.83600
C161        C  0.51328650  0.51088044  0.27724896     1.11600
O162        O  0.39459094  0.54362657  0.21277413    -0.96700
Zr163      Zr  0.42267676  0.51993700  0.22947044     1.88900
O164        O  0.44657828  0.49080871  0.29084800    -0.73300
O165        O  0.48506091  0.55782690  0.25123935    -0.52600
O166        O  0.42285315  0.54985120  0.25656641    -0.97200
O167        O  0.38350970  0.50720550  0.22687539    -0.54500
O168        O  0.41600034  0.50952733  0.27798867    -0.73800
C169        C  0.42765327  0.49980524  0.29619560     0.98500
O170        O  0.49102662  0.45753452  0.27197819    -0.62600
O171        O  0.44555657  0.44748928  0.15209074    -0.57400
O172        O  0.45132283  0.45122733  0.25325022    -0.94100
O173        O  0.42636393  0.44796333  0.21644807    -0.92600
O174        O  0.49563334  0.45392488  0.14582220    -0.92900
O175        O  0.52495163  0.45952557  0.19040249    -0.91700
C176        C  0.43546902  0.44224880  0.23962936     1.17400
H177        H  0.45994673  0.48266451  0.13354008     0.33300
H178        H  0.51314236  0.49500779  0.22645368     0.44200
H179        H  0.41976292  0.47984814  0.24090472     0.37700
H180        H  0.44636662  0.54900862  0.19895363     0.34200
H181        H  0.54557088  0.48613246  0.15620483     0.26000
H182        H  0.49823743  0.56640192  0.24686948     0.31900
H183        H  0.43234133  0.54695370  0.27340383     0.37800
H184        H  0.49409541  0.45792397  0.12588572     0.32300
H185        H  0.43679909  0.43602904  0.15845116     0.31100
H186        H  0.39629085  0.44708985  0.17029784     0.32800
H187        H  0.38272984  0.49699849  0.24145178     0.31800
H188        H  0.51542661  0.45108870  0.20255208     0.35800
H189        H  0.50709867  0.45906675  0.26524842     0.28500
H190        H  0.44616929  0.54733878  0.10572096     0.32700
H191        H  0.38365754  0.54553695  0.22857497     0.35600
H192        H  0.43897048  0.45061074  0.13338051     0.28200
H193        H  0.49147205  0.46101807  0.29220700     0.41100
H194        H  0.53755728  0.52701931  0.21305778     0.31100
H195        H  0.53878286  0.50680596  0.16678653     0.38800
H196        H  0.38292872  0.50009673  0.20878355     0.30600
H197        H  0.47125972  0.56509488  0.24488670     0.30700
H198        H  0.42671073  0.55251923  0.12757688     0.30900
Zr199      Zr  0.45532336  0.74095018  0.13043098     2.17500
O200        O  0.43570017  0.72021693  0.16441671    -0.51400
O201        O  0.48030520  0.74765408  0.17102070    -0.74600
O202        O  0.47024899  0.70791688  0.13124861    -0.81400
O203        O  0.40912186  0.77990260  0.14011850    -0.83200
O204        O  0.49128862  0.70241095  0.09165661    -0.78800
O205        O  0.41873545  0.74922452  0.15268920    -0.90400
O206        O  0.50779183  0.76912498  0.15782664    -0.76400
O207        O  0.49272115  0.74492781  0.11072882    -0.85900
O208        O  0.46253981  0.77489341  0.13083707    -0.85600
O209        O  0.45255853  0.72730778  0.08374637    -0.72300
O210        O  0.42596163  0.75523248  0.10131517    -0.84500
Zr211      Zr  0.47002688  0.78004320  0.03444391     2.26400
Zr212      Zr  0.49025814  0.73186980  0.06410473     2.06300
Zr213      Zr  0.43384758  0.78900507  0.10098330     2.10000
Zr214      Zr  0.49968608  0.77888232  0.11024861     1.78800
O215        O  0.39402828  0.80041072  0.10008954    -0.93300
O216        O  0.54000392  0.76875234  0.10968457    -0.41100
O217        O  0.47127093  0.79396015  0.08092262    -0.77700
O218        O  0.49922456  0.76572569  0.06387116    -0.96400
O219        O  0.46165296  0.74635697  0.03450908    -0.89700
O220        O  0.43238242  0.77636650  0.05402877    -0.92500
C221        C  0.49837834  0.75789858  0.17581221     1.01200
C222        C  0.40579129  0.76428776  0.15410762     1.14200
C223        C  0.48249310  0.69708065  0.11515998     1.04900
O224        O  0.53071983  0.72407205  0.07240964    -0.94700
O225        O  0.51165692  0.73792606  0.02128880    -0.90400
O226        O  0.50337509  0.76858787  0.00708466    -0.83600
C227        C  0.51494673  0.75269995  0.00551601     1.11600
O228        O  0.39521527  0.72120119  0.07377629    -0.96700
Zr229      Zr  0.42424045  0.74288985  0.05444088     1.88900
O230        O  0.44828702  0.77102712  0.99249814    -0.73300
O231        O  0.48377735  0.70489768  0.03204420    -0.52600
O232        O  0.42371030  0.71199302  0.02988030    -0.97200
O233        O  0.38552110  0.75691567  0.05365650    -0.54500
O234        O  0.41878290  0.75125771  0.00522255    -0.73800
C235        C  0.43018769  0.76103079  0.98702279     0.98500
O236        O  0.48952217  0.80603815  0.00922441    -0.62600
O237        O  0.44511547  0.81595845  0.13094936    -0.57400
O238        O  0.45201292  0.81208690  0.03135438    -0.94100
O239        O  0.42726540  0.81525173  0.06839975    -0.92600
O240        O  0.49821970  0.80861841  0.13764924    -0.92900
O241        O  0.52503195  0.80382900  0.09164003    -0.91700
C242        C  0.43630641  0.82112881  0.04534088     1.17400
H243        H  0.46170023  0.78021771  0.14962281     0.33300
H244        H  0.51453804  0.76779874  0.05651610     0.44200
H245        H  0.42101365  0.78304775  0.04273957     0.37700
H246        H  0.44861104  0.71376542  0.08454566     0.34200
H247        H  0.54729443  0.77598416  0.12531479     0.26000
H248        H  0.49862123  0.69775949  0.03176492     0.31900
H249        H  0.43591415  0.71310018  0.01538200     0.37800
H250        H  0.51170619  0.80786966  0.15042965     0.32300
H251        H  0.43882037  0.82757200  0.12143674     0.31100
H252        H  0.39383768  0.81192677  0.11248103     0.32800
H253        H  0.38504911  0.76547290  0.03695193     0.31800
H254        H  0.52568402  0.80134559  0.07111536     0.35800
H255        H  0.50569394  0.80578686  0.01599013     0.28500
H256        H  0.44792654  0.71491652  0.17681976     0.32700
H257        H  0.38401715  0.71903745  0.05833772     0.35600
H258        H  0.43553774  0.81454319  0.14808748     0.28200
H259        H  0.49030901  0.80184792  0.98929806     0.41100
H260        H  0.53925931  0.73587436  0.06698419     0.31100
H261        H  0.53980335  0.75516951  0.11624838     0.38800
H262        H  0.38514974  0.76585276  0.06994101     0.30600
H263        H  0.47297030  0.69619836  0.04200188     0.30700
H264        H  0.42992273  0.70900822  0.15354408     0.30900
Zr265      Zr  0.08683003  0.53041365  0.28429060     2.17500
O266        O  0.06173995  0.55398820  0.26130154    -0.51400
O267        O  0.10718990  0.52260246  0.24101911    -0.74600
O268        O  0.10613687  0.56167036  0.27915324    -0.81400
O269        O  0.04218861  0.49036579  0.27568064    -0.83200
O270        O  0.13508268  0.56206978  0.31151802    -0.78800
O271        O  0.05217672  0.52016411  0.25942798    -0.90400
O272        O  0.13570150  0.50122063  0.25199546    -0.76400
O273        O  0.12526081  0.52494933  0.30054057    -0.85900
O274        O  0.09274450  0.49627435  0.28404916    -0.85600
O275        O  0.08846706  0.54485433  0.33032679    -0.72300
O276        O  0.05867755  0.51704985  0.31559849    -0.84500
Zr277      Zr  0.10423948  0.49148358  0.37952789     2.26400
Zr278      Zr  0.12657504  0.53804574  0.34714808     2.06300
Zr279      Zr  0.06552842  0.48293567  0.31635558     2.10000
Zr280      Zr  0.13082753  0.49098357  0.30058903     1.78800
O281        O  0.02539905  0.47686185  0.32883801    -0.93300
O282        O  0.17144427  0.49960965  0.29630615    -0.41100
O283        O  0.10379102  0.47726359  0.33325752    -0.77700
O284        O  0.13296475  0.50379692  0.34732085    -0.96400
O285        O  0.09858474  0.52564776  0.37930980    -0.89700
O286        O  0.06601659  0.49667637  0.36264797    -0.92500
C287        C  0.12476070  0.51213964  0.23467687     1.01200
C288        C  0.03958372  0.50491117  0.25927651     1.14200
C289        C  0.12422680  0.56916097  0.29035908     1.04900
O290        O  0.16602695  0.55004338  0.34639615    -0.94700
O291        O  0.15121138  0.52998005  0.38685827    -0.90400
O292        O  0.13835363  0.50169244  0.40546116    -0.83600
C293        C  0.15260666  0.51585368  0.40428332     1.11600
O294        O  0.03574829  0.55603356  0.34200482    -0.96700
Zr295      Zr  0.06063441  0.53093151  0.36153269     1.88900
O296        O  0.08099476  0.49891079  0.42141845    -0.73300
O297        O  0.11584949  0.56604999  0.37536037    -0.52600
O298        O  0.06345890  0.56126510  0.38734112    -0.97200
O299        O  0.01980389  0.52290868  0.36494960    -0.54500
O300        O  0.05579683  0.52301379  0.41056681    -0.73800
C301        C  0.06472567  0.51086041  0.42774998     0.98500
O302        O  0.12757450  0.46933677  0.40780496    -0.62600
O303        O  0.06774953  0.45503787  0.28506474    -0.57400
O304        O  0.08848635  0.45865045  0.38191537    -0.94100
O305        O  0.06780074  0.45281295  0.34216017    -0.92600
O306        O  0.12442974  0.46121168  0.27436834    -0.92900
O307        O  0.15801720  0.46572718  0.31415256    -0.91700
C308        C  0.07664989  0.44757987  0.36569932     1.17400
H309        H  0.09058389  0.49093382  0.26543783     0.33300
H310        H  0.14829895  0.50071575  0.35390363     0.44200
H311        H  0.05483549  0.49041774  0.37463403     0.37700
H312        H  0.08593447  0.55863014  0.32913112     0.34200
H313        H  0.17163945  0.51107880  0.28383403     0.26000
H314        H  0.12870565  0.56753984  0.38892722     0.31900
H315        H  0.04929166  0.56181856  0.39898832     0.37800
H316        H  0.11750870  0.45221586  0.28819043     0.32300
H317        H  0.05173466  0.45013758  0.28401816     0.31100
H318        H  0.02602690  0.46889770  0.34614505     0.32800
H319        H  0.01387110  0.53116317  0.38039435     0.31800
H320        H  0.15445183  0.46310588  0.33418473     0.35800
H321        H  0.11700822  0.46370016  0.42196809     0.28500
H322        H  0.07083869  0.55930179  0.24545970     0.32700
H323        H  0.03364857  0.55233598  0.32201847     0.35600
H324        H  0.07082614  0.46032514  0.26606596     0.28200
H325        H  0.13172471  0.45851278  0.39510355     0.41100
H326        H  0.17464441  0.54047404  0.33495599     0.31100
H327        H  0.17581145  0.50472034  0.31502957     0.38800
H328        H  0.01938529  0.50963903  0.37271381     0.30600
H329        H  0.11743564  0.57719080  0.36242188     0.30700
H330        H  0.06022790  0.56477265  0.27489723     0.30900
Zr331      Zr  0.08832774  0.23363179  0.50184390     2.17500
O332        O  0.06592551  0.20963819  0.52759794    -0.51400
O333        O  0.10905067  0.24207489  0.54466480    -0.74600
O334        O  0.10837873  0.20229467  0.50544471    -0.81400
O335        O  0.04085851  0.27177731  0.50920569    -0.83200
O336        O  0.13738699  0.20266806  0.47327881    -0.78800
O337        O  0.05193050  0.24205906  0.52498980    -0.90400
O338        O  0.13899462  0.26164398  0.53291848    -0.76400
O339        O  0.12646113  0.23971364  0.48540743    -0.85900
O340        O  0.09347164  0.26790001  0.50279851    -0.85600
O341        O  0.08988117  0.21968422  0.45540030    -0.72300
O342        O  0.05977534  0.24723198  0.47106098    -0.84500
Zr343      Zr  0.10473317  0.27362914  0.40729663     2.26400
Zr344      Zr  0.12777278  0.22701019  0.43859527     2.06300
Zr345      Zr  0.06577258  0.28131209  0.47101519     2.10000
Zr346      Zr  0.13133825  0.27377543  0.48591995     1.78800
O347        O  0.02611502  0.28838416  0.45730299    -0.93300
O348        O  0.17240988  0.26609510  0.48595054    -0.41100
O349        O  0.10379639  0.28763311  0.45383722    -0.77700
O350        O  0.13369564  0.26126651  0.43926791    -0.96400
O351        O  0.09937611  0.23946893  0.40683768    -0.89700
O352        O  0.06667863  0.26810173  0.42447673    -0.92500
C353        C  0.12757491  0.25138085  0.55047923     1.01200
C354        C  0.03842520  0.25686415  0.52492259     1.14200
C355        C  0.12664645  0.19508158  0.49406108     1.04900
O356        O  0.16754043  0.21553369  0.43850383    -0.94700
O357        O  0.15239358  0.23594729  0.39951296    -0.90400
O358        O  0.14099371  0.26546349  0.38358643    -0.83600
C359        C  0.15490689  0.25093383  0.38396077     1.11600
O360        O  0.03662095  0.21149574  0.45013397    -0.96700
Zr361      Zr  0.06154943  0.23393029  0.42493801     1.88900
O362        O  0.08153837  0.26598708  0.36546217    -0.73300
O363        O  0.11788525  0.19894844  0.41014915    -0.52600
O364        O  0.06413714  0.20347008  0.39940237    -0.97200
O365        O  0.02087174  0.24204482  0.41828253    -0.54500
O366        O  0.05615337  0.24215639  0.37618078    -0.73800
C367        C  0.06513577  0.25428092  0.35910075     0.98500
O368        O  0.12454662  0.29532740  0.37480582    -0.62600
O369        O  0.06722523  0.30641844  0.50700717    -0.57400
O370        O  0.08874892  0.30640687  0.40674241    -0.94100
O371        O  0.06659738  0.31160937  0.44551518    -0.92600
O372        O  0.12599874  0.30245728  0.51505817    -0.92900
O373        O  0.15550479  0.30077979  0.47164096    -0.91700
C374        C  0.07595962  0.31711865  0.42243538     1.17400
H375        H  0.09120412  0.27304874  0.52150657     0.33300
H376        H  0.14914375  0.26454136  0.43346362     0.44200
H377        H  0.05532761  0.27441784  0.41270455     0.37700
H378        H  0.08756382  0.20587406  0.45623997     0.34200
H379        H  0.17821528  0.27098732  0.50421990     0.26000
H380        H  0.13149405  0.19691225  0.39788111     0.31900
H381        H  0.07541836  0.20590467  0.38415635     0.37800
H382        H  0.12097141  0.29759268  0.53367371     0.32300
H383        H  0.07686646  0.31681344  0.49890922     0.31100
H384        H  0.02305261  0.30152984  0.46468595     0.32800
H385        H  0.02066342  0.25358367  0.40595155     0.31800
H386        H  0.14818611  0.30572849  0.45420600     0.35800
H387        H  0.11250168  0.30040106  0.36194157     0.28500
H388        H  0.07603460  0.20513812  0.54310840     0.32700
H389        H  0.02737150  0.20496830  0.43543701     0.35600
H390        H  0.05142175  0.31190475  0.50749829     0.28200
H391        H  0.12950985  0.30657072  0.38618529     0.41100
H392        H  0.17629788  0.22573274  0.44844997     0.31100
H393        H  0.17309427  0.25184898  0.48778975     0.38800
H394        H  0.01573775  0.24695915  0.43684827     0.30600
H395        H  0.11827455  0.18793214  0.42345924     0.30700
H396        H  0.06451226  0.19843201  0.51473777     0.30900
Zr397      Zr  0.21662755  0.52978909  0.99846164     2.17500
O398        O  0.23753834  0.55369658  0.02625789    -0.51400
O399        O  0.19697236  0.51977236  0.04140618    -0.74600
O400        O  0.19585175  0.56086176  0.00326004    -0.81400
O401        O  0.26369463  0.49141119  0.00551065    -0.83200
O402        O  0.16777709  0.56234575  0.96981070    -0.78800
O403        O  0.25324926  0.52126148  0.02125171    -0.90400
O404        O  0.16699827  0.50035467  0.02933347    -0.76400
O405        O  0.17834314  0.52347675  0.98265212    -0.85900
O406        O  0.21256956  0.49539515  0.99755700    -0.85600
O407        O  0.21380443  0.54447839  0.95259106    -0.72300
O408        O  0.24544705  0.51781985  0.96636418    -0.84500
Zr409      Zr  0.19955348  0.49152747  0.90284461     2.26400
Zr410      Zr  0.17563316  0.53700105  0.93632108     2.06300
Zr411      Zr  0.24045279  0.48343661  0.96455234     2.10000
Zr412      Zr  0.17437228  0.48935731  0.98169775     1.78800
O413        O  0.27998150  0.47908728  0.94817685    -0.93300
O414        O  0.13285907  0.49523426  0.98241783    -0.41100
O415        O  0.20205080  0.47697400  0.94879238    -0.77700
O416        O  0.17050741  0.50272490  0.93547920    -0.96400
O417        O  0.20387733  0.52569663  0.90354050    -0.89700
O418        O  0.23795134  0.49740848  0.91858338    -0.92500
C419        C  0.17869201  0.51013548  0.04722180     1.01200
C420        C  0.26633977  0.50617960  0.02152901     1.14200
C421        C  0.17820599  0.56892367  0.99153202     1.04900
O422        O  0.13465515  0.54343699  0.94303973    -0.94700
O423        O  0.15195330  0.52957922  0.89558263    -0.90400
O424        O  0.16361534  0.50021728  0.87942312    -0.83600
C425        C  0.14988019  0.51479809  0.87948516     1.11600
O426        O  0.26577709  0.55774582  0.93903186    -0.96700
Zr427      Zr  0.24192332  0.53172095  0.92047674     1.88900
O428        O  0.22422506  0.49846026  0.86194462    -0.73300
O429        O  0.18142245  0.56607539  0.90830661    -0.52600
O430        O  0.23635792  0.56126655  0.89330525    -0.97200
O431        O  0.28282575  0.52391438  0.91555380    -0.54500
O432        O  0.24805970  0.52352429  0.87190437    -0.73800
C433        C  0.24009149  0.51062868  0.85532337     0.98500
O434        O  0.18225254  0.47165514  0.86595690    -0.62600
O435        O  0.24318467  0.45458701  0.99384219    -0.57400
O436        O  0.20948286  0.45742639  0.90662221    -0.94100
O437        O  0.23911406  0.45349238  0.93743551    -0.92600
O438        O  0.18098787  0.46142884  0.01187956    -0.92900
O439        O  0.15281086  0.46103130  0.96653176    -0.91700
C440        C  0.22499797  0.44712630  0.91878914     1.17400
H441        H  0.21521379  0.48982601  0.01594420     0.33300
H442        H  0.15510580  0.49939228  0.92949943     0.44200
H443        H  0.24917684  0.49141439  0.90632586     0.37700
H444        H  0.21577435  0.55830787  0.95388996     0.34200
H445        H  0.12667458  0.48579517  0.99613475     0.26000
H446        H  0.17919563  0.56187057  0.88855815     0.31900
H447        H  0.22511418  0.55782003  0.87843249     0.37800
H448        H  0.19241583  0.45347693  0.00152681     0.32300
H449        H  0.25993551  0.45265825  0.99698400     0.31100
H450        H  0.28935172  0.48800469  0.95976033     0.32800
H451        H  0.28338420  0.51106198  0.90641202     0.31800
H452        H  0.15766119  0.45892831  0.94676541     0.35800
H453        H  0.19523809  0.46495250  0.85649241     0.28500
H454        H  0.22698490  0.55746230  0.04173875     0.32700
H455        H  0.27552292  0.56197566  0.92306090     0.35600
H456        H  0.23704923  0.45848497  0.01245600     0.28200
H457        H  0.17359908  0.46133403  0.87578878     0.41100
H458        H  0.12766038  0.53053797  0.94581621     0.31100
H459        H  0.13106230  0.50790811  0.99186923     0.38800
H460        H  0.28827212  0.52153477  0.93501731     0.30600
H461        H  0.16777161  0.57425080  0.91241068     0.30700
H462        H  0.23878005  0.56531236  0.01416758     0.30900
Zr463      Zr  0.22077786  0.23233118  0.78683300     2.17500
O464        O  0.24341043  0.20732390  0.76319503    -0.51400
O465        O  0.20202146  0.24105312  0.74295498    -0.74600
O466        O  0.19977742  0.20177675  0.78124514    -0.81400
O467        O  0.26744996  0.27064748  0.77994291    -0.83200
O468        O  0.17014556  0.20183127  0.81262806    -0.78800
O469        O  0.25726545  0.24074611  0.76431110    -0.90400
O470        O  0.17214006  0.26104165  0.75391720    -0.76400
O471        O  0.18217802  0.23901429  0.80135414    -0.85900
O472        O  0.21669585  0.26674611  0.78660628    -0.85600
O473        O  0.21706095  0.21807267  0.83274479    -0.72300
O474        O  0.24885264  0.24456516  0.81933389    -0.84500
Zr475      Zr  0.20200964  0.27178001  0.88097889     2.26400
Zr476      Zr  0.17873732  0.22597804  0.84785882     2.06300
Zr477      Zr  0.24385702  0.27895892  0.82016363     2.10000
Zr478      Zr  0.17827162  0.27313051  0.80129945     1.78800
O479        O  0.28364281  0.28164186  0.83626887    -0.93300
O480        O  0.13689852  0.26706146  0.79994819    -0.41100
O481        O  0.20523120  0.28582257  0.83475725    -0.77700
O482        O  0.17352769  0.26034304  0.84777489    -0.96400
O483        O  0.20632794  0.23750633  0.88128099    -0.89700
O484        O  0.24068825  0.26540922  0.86627852    -0.92500
C485        C  0.18376573  0.25062438  0.73663276     1.01200
C486        C  0.27032719  0.25573942  0.76430262     1.14200
C487        C  0.18128215  0.19456675  0.79185489     1.04900
O488        O  0.13785893  0.21814971  0.84509522    -0.94700
O489        O  0.15438685  0.23386343  0.88776546    -0.90400
O490        O  0.16535534  0.26347034  0.90346367    -0.83600
C491        C  0.15171904  0.24884173  0.90332272     1.11600
O492        O  0.26782190  0.20363464  0.84966194    -0.96700
Zr493      Zr  0.24456407  0.23101739  0.86524798     1.88900
O494        O  0.22652048  0.26579391  0.92237239    -0.73300
O495        O  0.18574308  0.19656741  0.87480033    -0.52600
O496        O  0.23733218  0.20206185  0.89297427    -0.97200
O497        O  0.28609197  0.23619877  0.86791206    -0.54500
O498        O  0.25109979  0.24098475  0.91309708    -0.73800
C499        C  0.24280343  0.25401860  0.92929775     0.98500
O500        O  0.18548985  0.29226570  0.91777171    -0.62600
O501        O  0.24712475  0.30756555  0.79043794    -0.57400
O502        O  0.21178883  0.30585963  0.87590466    -0.94100
O503        O  0.24266575  0.30905123  0.84687348    -0.92600
O504        O  0.18435686  0.30080995  0.77053353    -0.92900
O505        O  0.15663940  0.30215226  0.81368165    -0.91700
C506        C  0.22793101  0.31581200  0.86451129     1.17400
H507        H  0.21962229  0.27205338  0.76813148     0.33300
H508        H  0.15800791  0.26379862  0.85321551     0.44200
H509        H  0.25189589  0.27143852  0.87847454     0.37700
H510        H  0.21897588  0.20422137  0.83165052     0.34200
H511        H  0.13119822  0.27478177  0.78380045     0.26000
H512        H  0.17075092  0.19374912  0.88389722     0.31900
H513        H  0.25009135  0.20158262  0.90684461     0.37800
H514        H  0.19709441  0.30807982  0.77947973     0.32300
H515        H  0.26393400  0.30954806  0.78806446     0.31100
H516        H  0.28541113  0.29529106  0.84211380     0.32800
H517        H  0.29085513  0.23021893  0.88596301     0.31800
H518        H  0.15507754  0.30153201  0.83442929     0.35800
H519        H  0.19868429  0.29898419  0.92667388     0.28500
H520        H  0.23423592  0.20347119  0.74651899     0.32700
H521        H  0.26279547  0.20120705  0.83004496     0.35600
H522        H  0.24164927  0.30347278  0.77161285     0.28200
H523        H  0.17669497  0.30253520  0.90789815     0.41100
H524        H  0.13212324  0.22544958  0.82856723     0.31100
H525        H  0.13555905  0.25348369  0.79358500     0.38800
H526        H  0.28785315  0.25025299  0.87108475     0.30600
H527        H  0.18757686  0.18624632  0.86051725     0.30700
H528        H  0.24315492  0.19595673  0.77587279     0.30900
Zr529      Zr  0.35260830  0.23956786  0.15711753     2.17500
O530        O  0.37103565  0.21784562  0.12330345    -0.51400
O531        O  0.32807574  0.24652218  0.11621115    -0.74600
O532        O  0.33648743  0.20689970  0.15743720    -0.81400
O533        O  0.39887913  0.27823533  0.14601317    -0.83200
O534        O  0.31725213  0.20154401  0.19840256    -0.78800
O535        O  0.38889686  0.24760155  0.13385184    -0.90400
O536        O  0.30078141  0.26867888  0.12811637    -0.76400
O537        O  0.31533038  0.24403343  0.17695182    -0.85900
O538        O  0.34527362  0.27349227  0.15566073    -0.85600
O539        O  0.35557405  0.22666302  0.20426567    -0.72300
O540        O  0.38224900  0.25408131  0.18552597    -0.84500
Zr541      Zr  0.33849485  0.28054034  0.25145648     2.26400
Zr542      Zr  0.31794303  0.23182571  0.22411315     2.06300
Zr543      Zr  0.37416317  0.28798414  0.18464122     2.10000
Zr544      Zr  0.30814875  0.27797214  0.17618957     1.78800
O545        O  0.41335915  0.30063410  0.18462202    -0.93300
O546        O  0.26830145  0.26680778  0.17669067    -0.41100
O547        O  0.33683187  0.29356415  0.20452410    -0.77700
O548        O  0.30923343  0.26571720  0.22307496    -0.96400
O549        O  0.34663263  0.24680503  0.25268994    -0.89700
O550        O  0.37606269  0.27608232  0.23187808    -0.92500
C551        C  0.31044286  0.25719187  0.11057445     1.01200
C552        C  0.40191873  0.26255976  0.13210166     1.14200
C553        C  0.32483969  0.19616220  0.17426901     1.04900
O554        O  0.27762399  0.22461517  0.21437719    -0.94700
O555        O  0.29623115  0.23936243  0.26650218    -0.90400
O556        O  0.30699629  0.26930191  0.28150237    -0.83600
C557        C  0.29442859  0.25404495  0.28292877     1.11600
O558        O  0.41076661  0.21732556  0.21792680    -0.96700
Zr559      Zr  0.38397062  0.24253789  0.23297870     1.88900
O560        O  0.36064973  0.27291065  0.29368368    -0.73300
O561        O  0.32416252  0.20626474  0.25862360    -0.52600
O562        O  0.38315848  0.21397478  0.26297583    -0.97200
O563        O  0.42350920  0.25429046  0.22909080    -0.54500
O564        O  0.39096209  0.25384949  0.28081982    -0.73800
C565        C  0.37945112  0.26369294  0.29897668     0.98500
O566        O  0.31520095  0.30726564  0.26994918    -0.62600
O567        O  0.36198844  0.31351821  0.15254141    -0.57400
O568        O  0.35819759  0.31151499  0.25527785    -0.94100
O569        O  0.38086389  0.31481870  0.21636003    -0.92600
O570        O  0.30892755  0.30801328  0.14944781    -0.92900
O571        O  0.28082509  0.30147208  0.19505780    -0.91700
C572        C  0.37303768  0.32057454  0.24018973     1.17400
H573        H  0.34608761  0.27853675  0.13671561     0.33300
H574        H  0.29409487  0.26812276  0.23082305     0.44200
H575        H  0.38768021  0.28277999  0.24267604     0.37700
H576        H  0.35949158  0.21308069  0.20384682     0.34200
H577        H  0.26106703  0.27285175  0.15995418     0.26000
H578        H  0.30971986  0.19865680  0.25839939     0.31900
H579        H  0.37133508  0.21684971  0.27745026     0.37800
H580        H  0.31445261  0.31789338  0.16292775     0.32300
H581        H  0.36055802  0.32517255  0.16452190     0.31100
H582        H  0.41244450  0.31285747  0.17381342     0.32800
H583        H  0.42782985  0.25841899  0.24834138     0.31800
H584        H  0.28983113  0.30896091  0.20900149     0.35800
H585        H  0.31582323  0.31745660  0.25531598     0.28500
H586        H  0.35843049  0.21258790  0.11149851     0.32700
H587        H  0.42203625  0.21594453  0.23350111     0.35600
H588        H  0.37567392  0.31600032  0.14061318     0.28200
H589        H  0.29894834  0.30293141  0.26920201     0.41100
H590        H  0.27543775  0.21119680  0.22108418     0.31100
H591        H  0.26923354  0.25289173  0.17195904     0.38800
H592        H  0.42229780  0.26647364  0.21824164     0.30600
H593        H  0.33588108  0.19763295  0.25005830     0.30700
H594        H  0.37680290  0.20671554  0.13441575     0.30900
Zr595      Zr  0.35167684  0.02431967  0.13070219     2.17500
O596        O  0.37203774  0.04804134  0.15948266    -0.51400
O597        O  0.32899622  0.01740345  0.17294135    -0.74600
O598        O  0.33339596  0.05613820  0.13141246    -0.81400
O599        O  0.40085078  0.98832013  0.13844699    -0.83200
O600        O  0.31245080  0.06102461  0.09156220    -0.78800
O601        O  0.38779337  0.01722612  0.15483148    -0.90400
O602        O  0.30199583  0.99513098  0.16115239    -0.76400
O603        O  0.31395988  0.01852454  0.11273420    -0.85900
O604        O  0.34629269  0.99017079  0.13278169    -0.85600
O605        O  0.35225333  0.03722249  0.08361474    -0.72300
O606        O  0.38121017  0.01077379  0.10095861    -0.84500
Zr607      Zr  0.33695695  0.98278688  0.03736203     2.26400
Zr608      Zr  0.31447155  0.03085198  0.06558398     2.06300
Zr609      Zr  0.37485071  0.97668286  0.10232256     2.10000
Zr610      Zr  0.30892608  0.98432435  0.11383882     1.78800
O611        O  0.41292621  0.96171492  0.10490159    -0.93300
O612        O  0.26788950  0.99195343  0.11625455    -0.41100
O613        O  0.33734275  0.96948277  0.08414384    -0.77700
O614        O  0.30763068  0.99667211  0.06695219    -0.96400
O615        O  0.34299947  0.01680743  0.03563071    -0.89700
O616        O  0.37480168  0.98872151  0.05505615    -0.92500
C617        C  0.31153867  0.00667069  0.17858735     1.01200
C618        C  0.40242939  0.00326209  0.15427916     1.14200
C619        C  0.32078092  0.06661245  0.11521590     1.04900
O620        O  0.27357906  0.03662512  0.07406523    -0.94700
O621        O  0.29408675  0.02343067  0.02257881    -0.90400
O622        O  0.30422356  0.99303641  0.00869809    -0.83600
C623        C  0.29213521  0.00858413  0.00662026     1.11600
O624        O  0.40475359  0.04939124  0.06878055    -0.96700
Zr625      Zr  0.38057788  0.02256239  0.05357939     1.88900
O626        O  0.35747050  0.99092718  0.99442283    -0.73300
O627        O  0.31931078  0.05727732  0.03220856    -0.52600
O628        O  0.37634907  0.05167448  0.02504001    -0.97200
O629        O  0.42116115  0.01307585  0.05427266    -0.54500
O630        O  0.38689472  0.01123395  0.00563458    -0.73800
C631        C  0.37547832  0.00077537  0.98822246     0.98500
O632        O  0.31340534  0.95788185  0.01520177    -0.62600
O633        O  0.36270102  0.95102984  0.13407374    -0.57400
O634        O  0.35755617  0.95179751  0.03394002    -0.94100
O635        O  0.38391671  0.95115906  0.06946966    -0.92600
O636        O  0.31302748  0.95526595  0.14239385    -0.92900
O637        O  0.28379458  0.95846639  0.09758479    -0.91700
C638        C  0.37470580  0.94418423  0.04718623     1.17400
H639        H  0.34794616  0.98530982  0.15175570     0.33300
H640        H  0.29243741  0.99383843  0.05971961     0.44200
H641        H  0.38641937  0.98247768  0.04363136     0.37700
H642        H  0.35533441  0.05093475  0.08394619     0.34200
H643        H  0.26220895  0.98486065  0.13298426     0.26000
H644        H  0.30517819  0.06524313  0.03423969     0.31900
H645        H  0.37469978  0.04714354  0.00537105     0.37800
H646        H  0.29950420  0.95542587  0.15514424     0.32300
H647        H  0.36886888  0.93901994  0.12554327     0.31100
H648        H  0.41134016  0.95115377  0.11884617     0.32800
H649        H  0.42213075  0.00134355  0.04239071     0.31800
H650        H  0.28608021  0.95807515  0.07692637     0.35800
H651        H  0.32262941  0.95305362  0.99909717     0.28500
H652        H  0.36068194  0.05278211  0.17348383     0.32700
H653        H  0.41680445  0.05072403  0.05413002     0.35600
H654        H  0.37210252  0.95294133  0.15126534     0.28200
H655        H  0.31303156  0.94703202  0.02879784     0.41100
H656        H  0.26641223  0.02367264  0.07300344     0.31100
H657        H  0.26725000  0.00572608  0.12187422     0.38800
H658        H  0.42388369  0.00833384  0.07367718     0.30600
H659        H  0.33180414  0.06533919  0.04016417     0.30700
H660        H  0.37510401  0.05920837  0.14698853     0.30900
Zr661      Zr  0.45590556  0.23953807  0.63208853     2.17500
O662        O  0.43682069  0.21886165  0.66658775    -0.51400
O663        O  0.48000814  0.24734273  0.67316268    -0.74600
O664        O  0.47132229  0.20659721  0.63358315    -0.81400
O665        O  0.40860901  0.27744387  0.64107678    -0.83200
O666        O  0.49259693  0.20108191  0.59422095    -0.78800
O667        O  0.41959759  0.24735351  0.65500127    -0.90400
O668        O  0.50677402  0.26971479  0.66105408    -0.76400
O669        O  0.49358484  0.24453009  0.61381500    -0.85900
O670        O  0.46149782  0.27365686  0.63213616    -0.85600
O671        O  0.45439519  0.22566582  0.58546510    -0.72300
O672        O  0.42644386  0.25258224  0.60164540    -0.84500
Zr673      Zr  0.47051902  0.27908735  0.53657877     2.26400
Zr674      Zr  0.49243553  0.23116125  0.56728178     2.06300
Zr675      Zr  0.43263465  0.28670043  0.60142082     2.10000
Zr676      Zr  0.49893386  0.27873104  0.61298882     1.78800
O677        O  0.39212159  0.29569723  0.59672273    -0.93300
O678        O  0.53984296  0.27044073  0.61388076    -0.41100
O679        O  0.47030742  0.29290663  0.58296898    -0.77700
O680        O  0.49971995  0.26537048  0.56666100    -0.96400
O681        O  0.46417077  0.24504466  0.53639022    -0.89700
O682        O  0.43261389  0.27402222  0.55453341    -0.92500
C683        C  0.49739161  0.25822655  0.67873703     1.01200
C684        C  0.40623735  0.26214470  0.65608289     1.14200
C685        C  0.48364142  0.19567686  0.61767903     1.04900
O686        O  0.53286957  0.22647967  0.57955977    -0.94700
O687        O  0.51315317  0.23767008  0.52401289    -0.90400
O688        O  0.50296470  0.26766650  0.50842405    -0.83600
C689        C  0.51514299  0.25214147  0.50729634     1.11600
O690        O  0.39857020  0.21552792  0.56757603    -0.96700
Zr691      Zr  0.42651371  0.24020295  0.55446002     1.88900
O692        O  0.44951241  0.27096876  0.49379430    -0.73300
O693        O  0.49126099  0.20364226  0.53523064    -0.52600
O694        O  0.43299883  0.21015925  0.52877673    -0.97200
O695        O  0.38590099  0.24958690  0.55514882    -0.54500
O696        O  0.42047460  0.25053256  0.50577942    -0.73800
C697        C  0.43154424  0.26093916  0.48793559     0.98500
O698        O  0.49214857  0.30555271  0.51532235    -0.62600
O699        O  0.44033851  0.31432346  0.63177188    -0.57400
O700        O  0.45147338  0.31062546  0.53198421    -0.94100
O701        O  0.42663714  0.31329240  0.56899460    -0.92600
O702        O  0.49386437  0.30853031  0.63961175    -0.92900
O703        O  0.52414969  0.30395270  0.59491885    -0.91700
C704        C  0.43548078  0.31937196  0.54588390     1.17400
H705        H  0.46001534  0.27904007  0.65082350     0.33300
H706        H  0.51494808  0.26788315  0.55929667     0.44200
H707        H  0.42111137  0.28035356  0.54300262     0.37700
H708        H  0.45083527  0.21204835  0.58624428     0.34200
H709        H  0.54605053  0.27709801  0.63070837     0.26000
H710        H  0.50561512  0.19629140  0.53908930     0.31900
H711        H  0.42889252  0.21307987  0.50898574     0.37800
H712        H  0.50780622  0.30946191  0.65159337     0.32300
H713        H  0.45067771  0.32267904  0.62052998     0.31100
H714        H  0.39013537  0.30718777  0.60893079     0.32800
H715        H  0.38135021  0.25070238  0.53511276     0.31800
H716        H  0.51563675  0.30949971  0.57871795     0.35800
H717        H  0.50834510  0.30369814  0.52146696     0.28500
H718        H  0.44918964  0.21387627  0.67906010     0.32700
H719        H  0.39099831  0.21161503  0.54976120     0.35600
H720        H  0.42555120  0.32152059  0.63247212     0.28200
H721        H  0.49224005  0.30291057  0.49481892     0.41100
H722        H  0.53789185  0.21526524  0.56812001     0.31100
H723        H  0.54028573  0.25655137  0.61887641     0.38800
H724        H  0.38576729  0.26303726  0.56224515     0.30600
H725        H  0.47869572  0.19528970  0.54232650     0.30700
H726        H  0.43122540  0.20745736  0.65601461     0.30900
Zr727      Zr  0.45348312  0.02080198  0.65746608     2.17500
O728        O  0.43583412  0.04164470  0.62190422    -0.51400
O729        O  0.47756233  0.01319004  0.61635123    -0.74600
O730        O  0.46855059  0.05391004  0.65744760    -0.81400
O731        O  0.40658869  0.98253299  0.64795639    -0.83200
O732        O  0.49105729  0.05871986  0.69599895    -0.78800
O733        O  0.41649994  0.01313084  0.63553627    -0.90400
O734        O  0.50407656  0.99030070  0.62781090    -0.76400
O735        O  0.49134463  0.01503817  0.67510868    -0.85900
O736        O  0.45856452  0.98657487  0.65730534    -0.85600
O737        O  0.45292470  0.03454935  0.70419151    -0.72300
O738        O  0.42388999  0.00816978  0.68795043    -0.84500
Zr739      Zr  0.46884685  0.98117006  0.75242137     2.26400
Zr740      Zr  0.49103896  0.02837563  0.72173826     2.06300
Zr741      Zr  0.42988067  0.97396446  0.68847155     2.10000
Zr742      Zr  0.49623552  0.98073338  0.67556584     1.78800
O743        O  0.38895676  0.96674805  0.69338290    -0.93300
O744        O  0.53741016  0.98777117  0.67428337    -0.41100
O745        O  0.46771270  0.96718784  0.70609694    -0.77700
O746        O  0.49818638  0.99410621  0.72196972    -0.96400
O747        O  0.46264469  0.01519469  0.75262956    -0.89700
O748        O  0.43067372  0.98673945  0.73524599    -0.92500
C749        C  0.49486645  0.00220388  0.61052163     1.01200
C750        C  0.40356817  0.99812305  0.63380419     1.14200
C751        C  0.48134794  0.06451876  0.67322063     1.04900
O752        O  0.53140056  0.03356025  0.70955976    -0.94700
O753        O  0.51204454  0.02182335  0.76465801    -0.90400
O754        O  0.50184665  0.99195592  0.78023953    -0.83600
C755        C  0.51412430  0.00736140  0.78132383     1.11600
O756        O  0.40007750  0.04719160  0.71968188    -0.96700
Zr757      Zr  0.42480102  0.02061200  0.73504283     1.88900
O758        O  0.44820735  0.98991343  0.79512638    -0.73300
O759        O  0.48874562  0.05509099  0.75507229    -0.52600
O760        O  0.42842534  0.04965985  0.76373323    -0.97200
O761        O  0.38420049  0.01139646  0.73479625    -0.54500
O762        O  0.41886396  0.01029841  0.78344863    -0.73800
C763        C  0.43019953  0.99993775  0.80111443     0.98500
O764        O  0.48905214  0.95457097  0.77566731    -0.62600
O765        O  0.43659562  0.94543663  0.65954056    -0.57400
O766        O  0.45010784  0.94969886  0.75647555    -0.94100
O767        O  0.42341827  0.94776749  0.72134296    -0.92600
O768        O  0.49352434  0.95173808  0.64654790    -0.92900
O769        O  0.51811535  0.95334115  0.69386654    -0.91700
C770        C  0.43336001  0.94133675  0.74359567     1.17400
H771        H  0.45662653  0.98139161  0.63857133     0.33300
H772        H  0.51345145  0.99137546  0.72914417     0.44200
H773        H  0.41924223  0.98059699  0.74700673     0.37700
H774        H  0.44944106  0.04820101  0.70379659     0.34200
H775        H  0.54385735  0.97842833  0.66054542     0.26000
H776        H  0.50181503  0.06365188  0.75021969     0.31900
H777        H  0.43852318  0.04587648  0.77964960     0.37800
H778        H  0.48163960  0.95458692  0.63214221     0.32300
H779        H  0.44884460  0.93817433  0.66957997     0.31100
H780        H  0.38656234  0.95478897  0.68231686     0.32800
H781        H  0.38131997  0.00555264  0.75349339     0.31800
H782        H  0.51862998  0.95542088  0.71448893     0.35800
H783        H  0.50521768  0.95526464  0.76897980     0.28500
H784        H  0.44872660  0.04688692  0.61056824     0.32700
H785        H  0.38895900  0.04933011  0.73522576     0.35600
H786        H  0.42256128  0.93749204  0.66203330     0.28200
H787        H  0.48972312  0.95805002  0.79588892     0.41100
H788        H  0.53855799  0.03889910  0.72681782     0.31100
H789        H  0.53854413  0.00044484  0.66469915     0.38800
H790        H  0.38332336  0.00042692  0.72147294     0.30600
H791        H  0.47478083  0.06244336  0.74949649     0.30700
H792        H  0.42944076  0.05288228  0.63225140     0.30900
Zr793      Zr  0.58718306  0.03054252  0.28644158     2.17500
O794        O  0.56414756  0.05525184  0.26270082    -0.51400
O795        O  0.60759949  0.02107584  0.24357503    -0.74600
O796        O  0.60809230  0.06076607  0.28018370    -0.81400
O797        O  0.54054894  0.99225595  0.27908645    -0.83200
O798        O  0.63489145  0.06284161  0.31511433    -0.78800
O799        O  0.55219339  0.02124414  0.26144110    -0.90400
O800        O  0.63729648  0.00139836  0.25639445    -0.76400
O801        O  0.62517895  0.02533710  0.30417169    -0.85900
O802        O  0.59280627  0.99640267  0.28728761    -0.85600
O803        O  0.58814161  0.04547896  0.33229199    -0.72300
O804        O  0.55824647  0.01810289  0.31752928    -0.84500
Zr805      Zr  0.60281141  0.99272741  0.38260449     2.26400
Zr806      Zr  0.62596511  0.03885387  0.35056405     2.06300
Zr807      Zr  0.56460673  0.98390696  0.31900974     2.10000
Zr808      Zr  0.63071173  0.99139150  0.30482830     1.78800
O809        O  0.52571578  0.97653999  0.33513829    -0.93300
O810        O  0.67127932  0.00040139  0.30212407    -0.41100
O811        O  0.60268711  0.97810799  0.33658627    -0.77700
O812        O  0.63224991  0.00468233  0.35121018    -0.96400
O813        O  0.59728478  0.02686146  0.38219173    -0.89700
O814        O  0.56480129  0.99802763  0.36507147    -0.92500
C815        C  0.62595568  0.01128305  0.23815986     1.01200
C816        C  0.53869734  0.00654756  0.26199284     1.14200
C817        C  0.62531388  0.06884361  0.29238729     1.04900
O818        O  0.66635301  0.04842466  0.34978554    -0.94700
O819        O  0.64988435  0.03070993  0.39096003    -0.90400
O820        O  0.63725483  0.00207491  0.40850338    -0.83600
C821        C  0.65138273  0.01631760  0.40791227     1.11600
O822        O  0.53521626  0.05844262  0.34591836    -0.96700
Zr823      Zr  0.55966767  0.03227532  0.36345617     1.88900
O824        O  0.57841432  0.99999659  0.42330483    -0.73300
O825        O  0.61715878  0.06737122  0.37874260    -0.52600
O826        O  0.56577827  0.06196272  0.39005922    -0.97200
O827        O  0.51853586  0.02491289  0.36460265    -0.54500
O828        O  0.55243198  0.02334316  0.41181774    -0.73800
C829        C  0.56148397  0.01134205  0.42916810     0.98500
O830        O  0.62320852  0.97205062  0.41611036    -0.62600
O831        O  0.56471694  0.95811903  0.28405383    -0.57400
O832        O  0.58922517  0.95934997  0.38293055    -0.94100
O833        O  0.56778021  0.95334138  0.34388222    -0.92600
O834        O  0.62676904  0.96170759  0.27776150    -0.92900
O835        O  0.65566266  0.96572130  0.32261704    -0.91700
C836        C  0.57743640  0.94810903  0.36697336     1.17400
H837        H  0.59087220  0.99072031  0.26885330     0.33300
H838        H  0.64754575  0.00166959  0.35794974     0.44200
H839        H  0.55340025  0.99187181  0.37685859     0.37700
H840        H  0.58578743  0.05925692  0.33061698     0.34200
H841        H  0.67720329  0.99369073  0.28516464     0.26000
H842        H  0.62868998  0.06713386  0.39414457     0.31900
H843        H  0.55323803  0.06227289  0.40421955     0.37800
H844        H  0.64097304  0.96100264  0.26620440     0.32300
H845        H  0.57943030  0.95112301  0.28719624     0.31100
H846        H  0.52130510  0.96480554  0.32450785     0.32800
H847        H  0.51736146  0.01259837  0.37511221     0.31800
H848        H  0.66018094  0.96990449  0.34177953     0.35800
H849        H  0.61119883  0.96631070  0.42833770     0.28500
H850        H  0.57366329  0.05991998  0.24678497     0.32700
H851        H  0.52570645  0.06264108  0.36215286     0.35600
H852        H  0.55261262  0.94900999  0.29030783     0.28200
H853        H  0.62951419  0.96113514  0.40498328     0.41100
H854        H  0.67388483  0.03896514  0.33709171     0.31100
H855        H  0.67112100  0.01424589  0.29683584     0.38800
H856        H  0.51461167  0.02143239  0.34494541     0.30600
H857        H  0.62180619  0.07843592  0.36682447     0.30700
H858        H  0.56334959  0.06624100  0.27604128     0.30900
Zr859      Zr  0.58952702  0.73324715  0.49943408     2.17500
O860        O  0.56963253  0.71223937  0.53276511    -0.51400
O861        O  0.61111983  0.74108928  0.54158329    -0.74600
O862        O  0.60617371  0.70055918  0.50162554    -0.81400
O863        O  0.54579299  0.77335708  0.50981398    -0.83200
O864        O  0.63603635  0.69974114  0.47065449    -0.78800
O865        O  0.55274758  0.74193047  0.52102140    -0.90400
O866        O  0.64099463  0.76075665  0.53033070    -0.76400
O867        O  0.62791826  0.73837865  0.48310039    -0.85900
O868        O  0.59553517  0.76743384  0.49994337    -0.85600
O869        O  0.59057707  0.71878966  0.45334331    -0.72300
O870        O  0.56082011  0.74682768  0.46870846    -0.84500
Zr871      Zr  0.60650417  0.77199224  0.40457010     2.26400
Zr872      Zr  0.62884608  0.72515635  0.43649211     2.06300
Zr873      Zr  0.56790191  0.78092612  0.46799230     2.10000
Zr874      Zr  0.63356316  0.77238070  0.48298772     1.78800
O875        O  0.52811264  0.78642042  0.45331168    -0.93300
O876        O  0.67463976  0.76484828  0.48458841    -0.41100
O877        O  0.60611579  0.78627985  0.45092020    -0.77700
O878        O  0.63538107  0.75932070  0.43645393    -0.96400
O879        O  0.60060680  0.73792774  0.40466046    -0.89700
O880        O  0.56831590  0.76731618  0.42165050    -0.92500
C881        C  0.62958659  0.75030318  0.54766287     1.01200
C882        C  0.54151614  0.75786847  0.52364089     1.14200
C883        C  0.62413292  0.69250928  0.49078867     1.04900
O884        O  0.66934910  0.71580620  0.43875782    -0.94700
O885        O  0.65277903  0.73293956  0.39597794    -0.90400
O886        O  0.64083276  0.76202995  0.37893672    -0.83600
C887        C  0.65458941  0.74744745  0.37927520     1.11600
O888        O  0.53554631  0.71049322  0.44367268    -0.96700
Zr889      Zr  0.56261757  0.73317620  0.42254326     1.88900
O890        O  0.58373023  0.76439485  0.36236427    -0.73300
O891        O  0.62030100  0.69653768  0.40857722    -0.52600
O892        O  0.56586639  0.70184180  0.39942835    -0.97200
O893        O  0.52257097  0.74261555  0.41407648    -0.54500
O894        O  0.55868712  0.74034501  0.37319152    -0.73800
C895        C  0.56765133  0.75238035  0.35595980     0.98500
O896        O  0.62946161  0.79374070  0.37544073    -0.62600
O897        O  0.56599463  0.80941620  0.49816409    -0.57400
O898        O  0.59054934  0.80472323  0.40169140    -0.94100
O899        O  0.57190953  0.81129395  0.44269756    -0.92600
O900        O  0.62933971  0.80044453  0.51354119    -0.92900
O901        O  0.65636535  0.79963452  0.46647443    -0.91700
C902        C  0.57983461  0.81619385  0.41850747     1.17400
H903        H  0.59354018  0.77276081  0.51860051     0.33300
H904        H  0.65075876  0.76216427  0.42990641     0.44200
H905        H  0.55724986  0.77374064  0.40961956     0.37700
H906        H  0.58776563  0.70504963  0.45419365     0.34200
H907        H  0.68054293  0.77218487  0.50097808     0.26000
H908        H  0.62524144  0.69990447  0.38923309     0.31900
H909        H  0.57727138  0.70380803  0.38418237     0.37800
H910        H  0.61549417  0.80725698  0.50633630     0.32300
H911        H  0.54929803  0.81206614  0.50054213     0.31100
H912        H  0.52913757  0.79543675  0.43716952     0.32800
H913        H  0.52324946  0.75465567  0.40284608     0.31800
H914        H  0.65929831  0.79686527  0.44632443     0.35800
H915        H  0.61872288  0.79924439  0.36129660     0.28500
H916        H  0.58157751  0.70786727  0.54629382     0.32700
H917        H  0.52639646  0.70524898  0.42781217     0.35600
H918        H  0.57126706  0.80501120  0.51694275     0.28200
H919        H  0.63370745  0.80469449  0.38780960     0.41100
H920        H  0.67626197  0.72490257  0.45243920     0.31100
H921        H  0.67538470  0.75116104  0.49062474     0.38800
H922        H  0.51673909  0.74681196  0.43270510     0.30600
H923        H  0.63169307  0.68676314  0.41492425     0.30700
H924        H  0.56527436  0.70052743  0.52204801     0.30900
Zr925      Zr  0.71747691  0.02864782  0.00028592     2.17500
O926        O  0.73867704  0.05363112  0.02563184    -0.51400
O927        O  0.69746152  0.02037705  0.04375880    -0.74600
O928        O  0.69679127  0.05951392  0.00345124    -0.81400
O929        O  0.76348243  0.99004808  0.01019222    -0.83200
O930        O  0.67043076  0.06091706  0.96798374    -0.78800
O931        O  0.75426847  0.02092470  0.02254551    -0.90400
O932        O  0.66761193  0.00075659  0.03196523    -0.76400
O933        O  0.67960591  0.02297088  0.98280648    -0.85900
O934        O  0.71200003  0.99442422  0.00169199    -0.85600
O935        O  0.71674269  0.04219674  0.95367062    -0.72300
O936        O  0.74636190  0.01489432  0.97021648    -0.84500
Zr937      Zr  0.70238493  0.98807552  0.90600255     2.26400
Zr938      Zr  0.67911263  0.03503595  0.93557313     2.06300
Zr939      Zr  0.74005906  0.98074055  0.97047713     2.10000
Zr940      Zr  0.67420879  0.98905113  0.98422234     1.78800
O941        O  0.78013574  0.97507111  0.95727786    -0.93300
O942        O  0.63374152  0.99877519  0.98541652    -0.41100
O943        O  0.70209268  0.97461062  0.95292108    -0.77700
O944        O  0.67300325  0.00087446  0.93698180    -0.96400
O945        O  0.70788583  0.02216450  0.90471704    -0.89700
O946        O  0.74013544  0.99364102  0.92374498    -0.92500
C947        C  0.67899852  0.01101336  0.04966142     1.01200
C948        C  0.76681214  0.00562078  0.02417764     1.14200
C949        C  0.67987601  0.06753735  0.99036155     1.04900
O950        O  0.63826084  0.04331513  0.93742944    -0.94700
O951        O  0.65643679  0.02645549  0.89461239    -0.90400
O952        O  0.66736556  0.99637849  0.88050575    -0.83600
C953        C  0.65407316  0.01123537  0.87951437     1.11600
O954        O  0.77208634  0.05210884  0.94114214    -0.96700
Zr955      Zr  0.74528178  0.02784795  0.92372462     1.88900
O956        O  0.72536545  0.99567073  0.86392568    -0.73300
O957        O  0.68722581  0.06295321  0.90598712    -0.52600
O958        O  0.74038772  0.05857189  0.89940054    -0.97200
O959        O  0.78609192  0.01947917  0.91960528    -0.54500
O960        O  0.75069558  0.01941436  0.87512257    -0.73800
C961        C  0.74186478  0.00736252  0.85784882     0.98500
O962        O  0.68137218  0.96545455  0.87608928    -0.62600
O963        O  0.73930276  0.95370695  0.00345151    -0.57400
O964        O  0.71985533  0.95594428  0.90457375    -0.94100
O965        O  0.74006045  0.95040973  0.94481061    -0.92600
O966        O  0.67820736  0.95991278  0.01262282    -0.92900
O967        O  0.64787764  0.96361349  0.96948443    -0.91700
C968        C  0.73203849  0.94515490  0.92083792     1.17400
H969        H  0.71390190  0.98930090  0.02047997     0.33300
H970        H  0.65769335  0.99774803  0.93046889     0.44200
H971        H  0.75154577  0.98719061  0.91223596     0.37700
H972        H  0.71913891  0.05598463  0.95445499     0.34200
H973        H  0.62748056  0.99276775  0.00272358     0.26000
H974        H  0.67187745  0.06723256  0.89918645     0.31900
H975        H  0.75325178  0.05905093  0.88569577     0.37800
H976        H  0.66581752  0.96090920  0.02692082     0.32300
H977        H  0.75535116  0.94873587  0.00370697     0.31100
H978        H  0.78637020  0.96653603  0.97221423     0.32800
H979        H  0.79100914  0.02487753  0.90125242     0.31800
H980        H  0.65231546  0.96079458  0.94976288     0.35800
H981        H  0.69276230  0.96043996  0.86233300     0.28500
H982        H  0.72842614  0.05788547  0.04114543     0.32700
H983        H  0.77322686  0.04955131  0.96161898     0.35600
H984        H  0.73711193  0.95955417  0.02229759     0.28200
H985        H  0.67751319  0.95430274  0.88826701     0.41100
H986        H  0.63053118  0.03125220  0.94340968     0.31100
H987        H  0.63402933  0.01278101  0.98968721     0.38800
H988        H  0.78654711  0.00530751  0.91683948     0.30600
H989        H  0.69209405  0.07321796  0.91922597     0.30700
H990        H  0.73957879  0.06481409  0.01265168     0.30900
Zr991      Zr  0.72098028  0.73145931  0.78508692     2.17500
O992        O  0.74334800  0.70874891  0.75666256    -0.51400
O993        O  0.70097687  0.73973499  0.74169573    -0.74600
O994        O  0.70295917  0.69931880  0.78194853    -0.81400
O995        O  0.76378860  0.77250717  0.77420624    -0.83200
O996        O  0.67407437  0.69903645  0.81431372    -0.78800
O997        O  0.75756911  0.74088778  0.76358576    -0.90400
O998        O  0.67033520  0.75890543  0.75260314    -0.76400
O999        O  0.68246354  0.73659293  0.80121915    -0.85900
O1000       O  0.71439871  0.76558318  0.78391944    -0.85600
O1001       O  0.71985000  0.71782030  0.83176114    -0.72300
O1002       O  0.74901715  0.74555747  0.81594261    -0.84500
Zr1003     Zr  0.70283231  0.77133887  0.87935988     2.26400
Zr1004     Zr  0.68144314  0.72424508  0.84838498     2.06300
Zr1005     Zr  0.74147152  0.77954819  0.81592185     2.10000
Zr1006     Zr  0.67621744  0.77051975  0.80033554     1.78800
O1007       O  0.78158317  0.78306798  0.83024798    -0.93300
O1008       O  0.63561945  0.76142408  0.79926489    -0.41100
O1009       O  0.70304488  0.78505794  0.83261514    -0.77700
O1010       O  0.67432636  0.75835221  0.84737964    -0.96400
O1011       O  0.70940355  0.73731399  0.88021185    -0.89700
O1012       O  0.74105320  0.76667160  0.86261906    -0.92500
C1013       C  0.68248512  0.74896018  0.73527463     1.01200
C1014       C  0.76856305  0.75689776  0.76091101     1.14200
C1015       C  0.68505219  0.69170232  0.79346761     1.04900
O1016       O  0.64105471  0.71473807  0.84615303    -0.94700
O1017       O  0.65716746  0.73238593  0.88864878    -0.90400
O1018       O  0.66753629  0.76234800  0.90361419    -0.83600
C1019       C  0.65435441  0.74748490  0.90402956     1.11600
O1020       O  0.77564973  0.71056619  0.84154476    -0.96700
Zr1021     Zr  0.74755513  0.73261883  0.86248058     1.88900
O1022       O  0.72636868  0.76465801  0.92143720    -0.73300
O1023       O  0.68952926  0.69537575  0.87609766    -0.52600
O1024       O  0.74496143  0.70171636  0.88685532    -0.97200
O1025       O  0.78750342  0.74288472  0.86896782    -0.54500
O1026       O  0.75209385  0.74080834  0.91148780    -0.73800
C1027       C  0.74291737  0.75309538  0.92824040     0.98500
O1028       O  0.68173002  0.79270774  0.91127934    -0.62600
O1029       O  0.74242073  0.80849797  0.78668778    -0.57400
O1030       O  0.71781291  0.80425613  0.88036191    -0.94100
O1031       O  0.73961329  0.80976296  0.84144078    -0.92600
O1032       O  0.68149049  0.79889237  0.77068732    -0.92900
O1033       O  0.65039937  0.79710318  0.81253065    -0.91700
C1034       C  0.73032819  0.81508767  0.86466227     1.17400
H1035       H  0.71651580  0.77086534  0.76526400     0.33300
H1036       H  0.65880214  0.76122038  0.85344345     0.44200
H1037       H  0.75193566  0.77341141  0.87445588     0.37700
H1038       H  0.72276041  0.70408103  0.83105126     0.34200
H1039       H  0.62921845  0.76809388  0.78252452     0.26000
H1040       H  0.67409833  0.69050938  0.88150417     0.31900
H1041       H  0.75766292  0.70193295  0.90081648     0.37800
H1042       H  0.68987873  0.80821223  0.78272644     0.32300
H1043       H  0.75895405  0.81059173  0.78241281     0.31100
H1044       H  0.78571041  0.79640488  0.82467799     0.32800
H1045       H  0.79332821  0.73510650  0.88499021     0.31800
H1046       H  0.64572977  0.79451281  0.83222828     0.35800
H1047       H  0.69339086  0.79813221  0.92430928     0.28500
H1048       H  0.73261043  0.70383447  0.74211293     0.32700
H1049       H  0.78437216  0.70489272  0.85748191     0.35600
H1050       H  0.73548505  0.80459199  0.76850809     0.28200
H1051       H  0.67642859  0.80376882  0.89969125     0.41100
H1052       H  0.63361496  0.72466956  0.83416726     0.31100
H1053       H  0.63571692  0.74758723  0.79395591     0.38800
H1054       H  0.78670598  0.75622171  0.87643514     0.30600
H1055       H  0.69533437  0.68575316  0.86235514     0.30700
H1056       H  0.74654610  0.69756414  0.76909901     0.30900
Zr1057     Zr  0.85496758  0.73992071  0.15574491     2.17500
O1058       O  0.87738674  0.71813654  0.12587209    -0.51400
O1059       O  0.83034811  0.74599744  0.11448242    -0.74600
O1060       O  0.83925599  0.70715120  0.15454839    -0.81400
O1061       O  0.90118232  0.77856996  0.14569599    -0.83200
O1062       O  0.81769656  0.70234332  0.19388995    -0.78800
O1063       O  0.88961624  0.74904512  0.13020629    -0.90400
O1064       O  0.80537304  0.77033843  0.12471484    -0.76400
O1065       O  0.81707914  0.74538100  0.17327508    -0.85900
O1066       O  0.84938407  0.77408301  0.15487506    -0.85600
O1067       O  0.85591664  0.72664084  0.20274165    -0.72300
O1068       O  0.88406273  0.75322468  0.18629221    -0.84500
Zr1069     Zr  0.83914483  0.78067486  0.25002498     2.26400
Zr1070     Zr  0.81778010  0.73259215  0.22018869     2.06300
Zr1071     Zr  0.87779453  0.78737665  0.18586843     2.10000
Zr1072     Zr  0.81168789  0.77960721  0.17299813     1.78800
O1073       O  0.91881630  0.79441191  0.19019203    -0.93300
O1074       O  0.77111681  0.77060876  0.17030877    -0.41100
O1075       O  0.83987161  0.79401472  0.20332472    -0.77700
O1076       O  0.81029300  0.76683792  0.21965732    -0.96400
O1077       O  0.84566651  0.74662105  0.25111860    -0.89700
O1078       O  0.87721134  0.77511661  0.23287519    -0.92500
C1079       C  0.81380214  0.75765522  0.10802981     1.01200
C1080       C  0.90307485  0.76372917  0.12969099     1.14200
C1081       C  0.82671347  0.69659344  0.17064470     1.04900
O1082       O  0.77718845  0.72651946  0.21034245    -0.94700
O1083       O  0.79646607  0.73957119  0.26269404    -0.90400
O1084       O  0.80573815  0.76992985  0.27739619    -0.83600
C1085       C  0.79377373  0.75431462  0.27871127     1.11600
O1086       O  0.90985143  0.71540986  0.21986314    -0.96700
Zr1087     Zr  0.88353579  0.74130946  0.23368726     1.88900
O1088       O  0.85998733  0.77275166  0.29303868    -0.73300
O1089       O  0.82111200  0.70568929  0.25308058    -0.52600
O1090       O  0.87880489  0.71252223  0.26270715    -0.97200
O1091       O  0.92380557  0.75145080  0.23352596    -0.54500
O1092       O  0.88930881  0.75217587  0.28191719    -0.73800
C1093       C  0.87804530  0.76282724  0.29930084     0.98500
O1094       O  0.81846274  0.80803588  0.27050837    -0.62600
O1095       O  0.87031239  0.81509736  0.15559329    -0.57400
O1096       O  0.85880020  0.81194895  0.25407897    -0.94100
O1097       O  0.88455635  0.81406914  0.21794916    -0.92600
O1098       O  0.81552305  0.80969645  0.14675490    -0.92900
O1099       O  0.78534472  0.80462881  0.18964479    -0.91700
C1100       C  0.87521783  0.82042538  0.24064544     1.17400
H1101       H  0.85108252  0.77923323  0.13607586     0.33300
H1102       H  0.79494008  0.76950078  0.22658419     0.44200
H1103       H  0.88854596  0.78151916  0.24447199     0.37700
H1104       H  0.85942475  0.71298400  0.20234635     0.34200
H1105       H  0.76524487  0.77706421  0.15310730     0.26000
H1106       H  0.80746577  0.69751186  0.24927348     0.31900
H1107       H  0.89163469  0.71296252  0.27648061     0.37800
H1108       H  0.80422882  0.80870497  0.13116673     0.32300
H1109       H  0.85990271  0.82349959  0.16675526     0.31100
H1110       H  0.92098498  0.80680512  0.18011368     0.32800
H1111       H  0.92438752  0.76305068  0.24570796     0.31800
H1112       H  0.79489575  0.81291371  0.20199719     0.35800
H1113       H  0.80245307  0.80698297  0.26336937     0.28500
H1114       H  0.86623798  0.71223192  0.11263134     0.32700
H1115       H  0.92054433  0.71367474  0.23595744     0.35600
H1116       H  0.88512870  0.82217480  0.15506634     0.28200
H1117       H  0.81738750  0.80522994  0.29091791     0.41100
H1118       H  0.77651925  0.72408050  0.18981211     0.31100
H1119       H  0.77125892  0.75669281  0.16546811     0.38800
H1120       H  0.92646741  0.75644647  0.21425994     0.30600
H1121       H  0.83441669  0.69798381  0.24626759     0.30700
H1122       H  0.88245740  0.70745497  0.13833647     0.30900
Zr1123     Zr  0.85363526  0.52198682  0.12791926     2.17500
O1124       O  0.87434462  0.54281874  0.16077629    -0.51400
O1125       O  0.83020386  0.51480363  0.16951192    -0.74600
O1126       O  0.83848785  0.55504666  0.12932314    -0.81400
O1127       O  0.90189655  0.48410355  0.13507455    -0.83200
O1128       O  0.81578065  0.56031176  0.09104565    -0.78800
O1129       O  0.89016887  0.51371611  0.15026205    -0.90400
O1130       O  0.80345689  0.49232042  0.15767714    -0.76400
O1131       O  0.81564544  0.51705244  0.11017016    -0.85900
O1132       O  0.84792580  0.48782436  0.12811401    -0.85600
O1133       O  0.85435131  0.53588934  0.08137115    -0.72300
O1134       O  0.88278596  0.50868160  0.09753813    -0.84500
Zr1135     Zr  0.83744404  0.48294788  0.03295856     2.26400
Zr1136     Zr  0.81616256  0.53058231  0.06363244     2.06300
Zr1137     Zr  0.87637563  0.47460046  0.09701581     2.10000
Zr1138     Zr  0.81025872  0.48280786  0.10963123     1.78800
O1139       O  0.91646561  0.46536377  0.08912953    -0.93300
O1140       O  0.76891387  0.48906505  0.11244734    -0.41100
O1141       O  0.83844324  0.46870117  0.07910203    -0.77700
O1142       O  0.80848029  0.49645245  0.06350432    -0.96400
O1143       O  0.84442286  0.51688104  0.03273425    -0.89700
O1144       O  0.87568890  0.48755296  0.05031470    -0.92500
C1145       C  0.81294638  0.50385199  0.17521466     1.01200
C1146       C  0.90411144  0.49925523  0.15039034     1.14200
C1147       C  0.82551465  0.56582829  0.11394615     1.04900
O1148       O  0.77551286  0.53599058  0.07430178    -0.94700
O1149       O  0.79531178  0.52453320  0.02020143    -0.90400
O1150       O  0.80347760  0.49374684  0.00656152    -0.83600
C1151       C  0.79194372  0.50960348  0.00474490     1.11600
O1152       O  0.90774474  0.54726437  0.06640151    -0.96700
Zr1153     Zr  0.88235199  0.52134983  0.05075722     1.88900
O1154       O  0.85848648  0.49174569  0.99064956    -0.73300
O1155       O  0.81934530  0.55858375  0.03269528    -0.52600
O1156       O  0.88033133  0.55086360  0.02283982    -0.97200
O1157       O  0.92248223  0.51065913  0.05288267    -0.54500
O1158       O  0.88869904  0.51100369  0.00253963    -0.73800
C1159       C  0.87693929  0.50110523  0.98480723     0.98500
O1160       O  0.81805161  0.45664864  0.00827836    -0.62600
O1161       O  0.87029353  0.44832240  0.13036141    -0.57400
O1162       O  0.85487701  0.45083736  0.02890737    -0.94100
O1163       O  0.88012658  0.44720417  0.06536355    -0.92600
O1164       O  0.81488157  0.45313991  0.13671851    -0.92900
O1165       O  0.78599776  0.45724545  0.09055965    -0.91700
C1166       C  0.87044479  0.44143302  0.04256278     1.17400
H1167       H  0.84958665  0.48249867  0.14682048     0.33300
H1168       H  0.79308329  0.49398880  0.05663185     0.44200
H1169       H  0.88688590  0.48104459  0.03855921     0.37700
H1170       H  0.85793575  0.54950627  0.08205405     0.34200
H1171       H  0.76348502  0.48101960  0.12836634     0.26000
H1172       H  0.80537032  0.56643457  0.03653690     0.31900
H1173       H  0.86846161  0.54826973  0.00833147     0.37800
H1174       H  0.82195801  0.44381205  0.12343646     0.32300
H1175       H  0.86896446  0.43655459  0.11862306     0.31100
H1176       H  0.91908160  0.45411979  0.10165271     0.32800
H1177       H  0.92372031  0.50007281  0.03893356     0.31800
H1178       H  0.79440165  0.45253476  0.07373351     0.35800
H1179       H  0.80190180  0.45681958  0.01510789     0.28500
H1180       H  0.86251716  0.54827080  0.17359309     0.32700
H1181       H  0.91955810  0.54862711  0.05146267     0.35600
H1182       H  0.88525936  0.44683464  0.14021885     0.28200
H1183       H  0.81716680  0.46067057  0.98828392     0.41100
H1184       H  0.76901351  0.54221697  0.05725887     0.31100
H1185       H  0.76764833  0.50251693  0.11940091     0.38800
H1186       H  0.92401460  0.50415993  0.07137324     0.30600
H1187       H  0.83227861  0.56628927  0.04037156     0.30700
H1188       H  0.87989096  0.55391049  0.14948483     0.30900
Zr1189     Zr  0.95215309  0.52079721  0.65334675     2.17500
O1190       O  0.93219141  0.54310237  0.62170512    -0.51400
O1191       O  0.97660206  0.51378198  0.61233027    -0.74600
O1192       O  0.96956221  0.55297413  0.65200117    -0.81400
O1193       O  0.90460093  0.48318943  0.64370512    -0.83200
O1194       O  0.99085268  0.55765829  0.69157674    -0.78800
O1195       O  0.91589653  0.51318378  0.62992731    -0.90400
O1196       O  0.00308042  0.49099754  0.62448243    -0.76400
O1197       O  0.98963574  0.51480655  0.67172459    -0.85900
O1198       O  0.95715593  0.48653078  0.65267151    -0.85600
O1199       O  0.95110594  0.53439251  0.70014999    -0.72300
O1200       O  0.92241683  0.50786933  0.68322626    -0.84500
Zr1201     Zr  0.96609748  0.48039258  0.74794161     2.26400
Zr1202     Zr  0.98888643  0.52778433  0.71848217     2.06300
Zr1203     Zr  0.92815585  0.47364225  0.68323473     2.10000
Zr1204     Zr  0.99450400  0.48057033  0.67169162     1.78800
O1205       O  0.88723933  0.46600665  0.68685488    -0.93300
O1206       O  0.03520837  0.48918922  0.67371776    -0.41100
O1207       O  0.96567735  0.46665296  0.70149904    -0.77700
O1208       O  0.99580033  0.49345987  0.71825196    -0.96400
O1209       O  0.96003594  0.51451661  0.74881220    -0.89700
O1210       O  0.92828507  0.48628762  0.73002301    -0.92500
C1211       C  0.99418955  0.50297022  0.60702614     1.01200
C1212       C  0.90228532  0.49858167  0.62900273     1.14200
C1213       C  0.98249653  0.56332891  0.66794283     1.04900
O1214       O  0.02954281  0.53315943  0.70817494    -0.94700
O1215       O  0.00925556  0.52046141  0.76164759    -0.90400
O1216       O  0.99970215  0.49003787  0.77548753    -0.83600
C1217       C  0.01177447  0.50552030  0.77730053     1.11600
O1218       O  0.89568827  0.54503796  0.71401806    -0.96700
Zr1219     Zr  0.92250736  0.52019106  0.73029142     1.88900
O1220       O  0.94503252  0.48903491  0.79025371    -0.73300
O1221       O  0.98719205  0.55499208  0.75102267    -0.52600
O1222       O  0.92656398  0.55010882  0.75689025    -0.97200
O1223       O  0.88210128  0.51030733  0.73125217    -0.54500
O1224       O  0.91623865  0.50999991  0.77866429    -0.73800
C1225       C  0.92714406  0.49919756  0.79616475     0.98500
O1226       O  0.98497315  0.45312922  0.77118614    -0.62600
O1227       O  0.93509152  0.44635021  0.65193765    -0.57400
O1228       O  0.94664801  0.44926356  0.75209408    -0.94100
O1229       O  0.92096209  0.44730436  0.71590214    -0.92600
O1230       O  0.99189506  0.45127903  0.64331224    -0.92900
O1231       O  0.01764718  0.45327098  0.68781896    -0.91700
C1232       C  0.93009952  0.44097709  0.73875602     1.17400
H1233       H  0.95559818  0.48139990  0.63384608     0.33300
H1234       H  0.01100510  0.49054126  0.72543717     0.44200
H1235       H  0.91666501  0.48012782  0.74147859     0.37700
H1236       H  0.94805823  0.54811819  0.69949857     0.34200
H1237       H  0.04241867  0.48205531  0.65790870     0.26000
H1238       H  0.00175187  0.56212876  0.74784440     0.31900
H1239       H  0.93610377  0.54659003  0.77343254     0.37800
H1240       H  0.98732854  0.45562471  0.62423703     0.32300
H1241       H  0.94374077  0.43690277  0.66355427     0.31100
H1242       H  0.88561297  0.45309105  0.67810342     0.32800
H1243       H  0.88017321  0.50279372  0.74883417     0.31800
H1244       H  0.00734608  0.44602190  0.70064826     0.35800
H1245       H  0.00114706  0.45323571  0.76444426     0.28500
H1246       H  0.94398551  0.54760998  0.60813556     0.32700
H1247       H  0.88595868  0.54826654  0.73052524     0.35600
H1248       H  0.91971933  0.44041818  0.64924689     0.28200
H1249       H  0.98584704  0.45659340  0.79140058     0.41100
H1250       H  0.03783495  0.52245431  0.71768070     0.31100
H1251       H  0.03569412  0.50290323  0.66779246     0.38800
H1252       H  0.88075550  0.50059491  0.71603851     0.30600
H1253       H  0.97495645  0.56359109  0.74351786     0.30700
H1254       H  0.92825784  0.55459504  0.63320639     0.30900
Zr1255     Zr  0.95525060  0.73853548  0.63060026     2.17500
O1256       O  0.93388455  0.71697169  0.66178243    -0.51400
O1257       O  0.97980332  0.74493394  0.67155523    -0.74600
O1258       O  0.97116973  0.70567015  0.63229799    -0.81400
O1259       O  0.90745640  0.77663229  0.63860127    -0.83200
O1260       O  0.99167150  0.70018427  0.59227042    -0.78800
O1261       O  0.91990186  0.74760937  0.65524863    -0.90400
O1262       O  0.00689677  0.76692583  0.65899614    -0.76400
O1263       O  0.99312559  0.74358725  0.61256221    -0.85900
O1264       O  0.96121389  0.77269729  0.63115032    -0.85600
O1265       O  0.95422104  0.72484177  0.58384512    -0.72300
O1266       O  0.92594418  0.75203438  0.60036355    -0.84500
Zr1267     Zr  0.97022193  0.77839337  0.53560343     2.26400
Zr1268     Zr  0.99235599  0.73048946  0.56592341     2.06300
Zr1269     Zr  0.93258542  0.78608815  0.60045115     2.10000
Zr1270     Zr  0.99867721  0.77775043  0.61195830     1.78800
O1271       O  0.89267414  0.79709303  0.59742120    -0.93300
O1272       O  0.04000836  0.77107556  0.61234940    -0.41100
O1273       O  0.97020912  0.79225437  0.58202416    -0.77700
O1274       O  0.99953278  0.76465693  0.56551390    -0.96400
O1275       O  0.96385501  0.74434406  0.53543272    -0.89700
O1276       O  0.93229434  0.77328226  0.55369084    -0.92500
C1277       C  0.99762605  0.75539510  0.67665734     1.01200
C1278       C  0.90569668  0.76191243  0.65479591     1.14200
C1279       C  0.98322411  0.69476888  0.61599522     1.04900
O1280       O  0.03240656  0.72675219  0.58052910    -0.94700
O1281       O  0.01341764  0.73722995  0.52280622    -0.90400
O1282       O  0.00301053  0.76720046  0.50736090    -0.83600
C1283       C  0.01548067  0.75179305  0.50623349     1.11600
O1284       O  0.90080487  0.71386735  0.57039969    -0.96700
Zr1285     Zr  0.92615038  0.73940929  0.55337358     1.88900
O1286       O  0.94976894  0.76924322  0.49297893    -0.73300
O1287       O  0.99406977  0.70327012  0.53339386    -0.52600
O1288       O  0.93283291  0.71039188  0.52535174    -0.97200
O1289       O  0.88495805  0.74676359  0.55215954    -0.54500
O1290       O  0.91943735  0.75019539  0.50518868    -0.73800
C1291       C  0.93133881  0.75980327  0.48722753     0.98500
O1292       O  0.99167534  0.80503428  0.51460340    -0.62600
O1293       O  0.94182974  0.81315525  0.63125666    -0.57400
O1294       O  0.95038753  0.80978548  0.53086505    -0.94100
O1295       O  0.92585915  0.81248159  0.56813685    -0.92600
O1296       O  0.99522937  0.80665393  0.64094947    -0.92900
O1297       O  0.02321301  0.80345852  0.59398316    -0.91700
C1298       C  0.93449512  0.81857941  0.54497201     1.17400
H1299       H  0.95982041  0.77792244  0.64994726     0.33300
H1300       H  0.01474632  0.76726062  0.55818386     0.44200
H1301       H  0.92073215  0.77961256  0.54225240     0.37700
H1302       H  0.95064918  0.71122791  0.58449190     0.34200
H1303       H  0.04580756  0.77740786  0.62966094     0.26000
H1304       H  0.00723775  0.69528081  0.53993700     0.31900
H1305       H  0.93665509  0.71506779  0.50621131     0.37800
H1306       H  0.00816223  0.80575568  0.65454176     0.32300
H1307       H  0.93467931  0.82455458  0.62209202     0.31100
H1308       H  0.89190303  0.80866521  0.60967651     0.32800
H1309       H  0.88352328  0.75834107  0.54002418     0.31800
H1310       H  0.01829031  0.80517900  0.57416699     0.35800
H1311       H  0.00792976  0.80310026  0.52046113     0.28500
H1312       H  0.94526994  0.71204532  0.67562058     0.32700
H1313       H  0.89439127  0.70765252  0.55333065     0.35600
H1314       H  0.93238279  0.81101086  0.64834067     0.28200
H1315       H  0.99155897  0.80256652  0.49405702     0.41100
H1316       H  0.04099722  0.73644909  0.56937804     0.31100
H1317       H  0.04125316  0.75707817  0.61638241     0.38800
H1318       H  0.88135197  0.75152634  0.57133737     0.30600
H1319       H  0.98020449  0.69546855  0.53763790     0.30700
H1320       H  0.92959842  0.70562880  0.65020114     0.30900
Zr1321     Zr  0.71794113  0.52820385  0.49684721     2.17500
O1322       O  0.74028556  0.55190053  0.52327295    -0.51400
O1323       O  0.69771025  0.51952675  0.53975784    -0.74600
O1324       O  0.69783130  0.55937770  0.50141914    -0.81400
O1325       O  0.76346279  0.48824751  0.50521145    -0.83200
O1326       O  0.66976449  0.56048125  0.46795459    -0.78800
O1327       O  0.75358453  0.51834820  0.52055673    -0.90400
O1328       O  0.66703023  0.50094382  0.52754395    -0.76400
O1329       O  0.67972914  0.52313263  0.47977514    -0.85900
O1330       O  0.71178450  0.49414889  0.49729731    -0.85600
O1331       O  0.71707046  0.54246146  0.45064352    -0.72300
O1332       O  0.74633896  0.51463393  0.46593003    -0.84500
Zr1333     Zr  0.70078092  0.48923475  0.40173880     2.26400
Zr1334     Zr  0.67900921  0.53618705  0.43309084     2.06300
Zr1335     Zr  0.73924177  0.48053689  0.46543449     2.10000
Zr1336     Zr  0.67386855  0.48920904  0.48009019     1.78800
O1337       O  0.77889489  0.47277550  0.45247751    -0.93300
O1338       O  0.63269929  0.49624444  0.48295121    -0.41100
O1339       O  0.70111547  0.47510561  0.44805988    -0.77700
O1340       O  0.67212134  0.50213263  0.43346102    -0.96400
O1341       O  0.70701496  0.52324616  0.40123207    -0.89700
O1342       O  0.73889657  0.49395548  0.41905963    -0.92500
C1343       C  0.67890560  0.51062773  0.54538854     1.01200
C1344       C  0.76624761  0.50303468  0.52108452     1.14200
C1345       C  0.68010213  0.56722318  0.48966272     1.04900
O1346       O  0.63878978  0.54647971  0.43252655    -0.94700
O1347       O  0.65531467  0.52857369  0.39241241    -0.90400
O1348       O  0.66699332  0.49943156  0.37534060    -0.83600
C1349       C  0.65339804  0.51409977  0.37571352     1.11600
O1350       O  0.77155506  0.55285707  0.43570874    -0.96700
Zr1351     Zr  0.74484595  0.52802797  0.41961192     1.88900
O1352       O  0.72485322  0.49511819  0.36020640    -0.73300
O1353       O  0.68947084  0.56474275  0.40603632    -0.52600
O1354       O  0.74034426  0.55837465  0.39405205    -0.97200
O1355       O  0.78534836  0.51838070  0.41739005    -0.54500
O1356       O  0.75074772  0.51848325  0.37137236    -0.73800
C1357       C  0.74188503  0.50629162  0.35429402     0.98500
O1358       O  0.67615317  0.46752800  0.37462665    -0.62600
O1359       O  0.73620561  0.45343446  0.49810987    -0.57400
O1360       O  0.71612054  0.45652677  0.39896400    -0.94100
O1361       O  0.73669208  0.45075117  0.43888224    -0.92600
O1362       O  0.68148041  0.46041472  0.50816092    -0.92900
O1363       O  0.64840314  0.46327058  0.46492673    -0.91700
C1364       C  0.72787858  0.44552522  0.41532813     1.17400
H1365       H  0.71378365  0.48880799  0.51593760     0.33300
H1366       H  0.65674415  0.49935542  0.42681630     0.44200
H1367       H  0.75012959  0.48741799  0.40739354     0.37700
H1368       H  0.71976058  0.55620908  0.45180082     0.34200
H1369       H  0.62780000  0.49117877  0.50151445     0.26000
H1370       H  0.68473100  0.56170970  0.38649275     0.31900
H1371       H  0.73604258  0.55463549  0.37462604     0.37800
H1372       H  0.66703979  0.45820254  0.51880882     0.32300
H1373       H  0.75130884  0.44675055  0.49684497     0.31100
H1374       H  0.78005293  0.45853489  0.45407092     0.32800
H1375       H  0.78592020  0.50740529  0.40402747     0.31800
H1376       H  0.65486187  0.45896465  0.44665570     0.35800
H1377       H  0.68616427  0.46170687  0.35998160     0.28500
H1378       H  0.73016285  0.55614568  0.53891688     0.32700
H1379       H  0.78088871  0.55636835  0.41900703     0.35600
H1380       H  0.73605552  0.45917627  0.51720864     0.28200
H1381       H  0.67225687  0.45677862  0.38753816     0.41100
H1382       H  0.63049702  0.53621094  0.44290120     0.31100
H1383       H  0.63179716  0.51047167  0.48497324     0.38800
H1384       H  0.78857025  0.51248035  0.43598768     0.30600
H1385       H  0.67843259  0.57482874  0.41226375     0.30700
H1386       H  0.74163713  0.56329408  0.51076329     0.30900
Zr1387     Zr  0.72068762  0.23036382  0.28796024     2.17500
O1388       O  0.74379704  0.20597433  0.26366692    -0.51400
O1389       O  0.70125242  0.23916165  0.24460995    -0.74600
O1390       O  0.70031509  0.19968279  0.28225885    -0.81400
O1391       O  0.76507556  0.27006920  0.27860689    -0.83200
O1392       O  0.67281770  0.19811537  0.31635838    -0.78800
O1393       O  0.75574795  0.23989813  0.26341043    -0.90400
O1394       O  0.67155627  0.25934946  0.25572954    -0.76400
O1395       O  0.68234907  0.23600165  0.30427957    -0.85900
O1396       O  0.71485870  0.26451503  0.28748092    -0.85600
O1397       O  0.71905748  0.21612079  0.33408733    -0.72300
O1398       O  0.74907224  0.24346639  0.31916309    -0.84500
Zr1399     Zr  0.70303686  0.26950705  0.38276153     2.26400
Zr1400     Zr  0.68086019  0.22290598  0.35083970     2.06300
Zr1401     Zr  0.74223469  0.27759227  0.31965967     2.10000
Zr1402     Zr  0.67681799  0.27000111  0.30405281     1.78800
O1403       O  0.78167827  0.28304458  0.33546918    -0.93300
O1404       O  0.63578677  0.26317009  0.29907423    -0.41100
O1405       O  0.70402406  0.28346691  0.33640886    -0.77700
O1406       O  0.67435344  0.25705763  0.35059186    -0.96400
O1407       O  0.70882084  0.23540709  0.38309062    -0.89700
O1408       O  0.74134850  0.26428963  0.36618167    -0.92500
C1409       C  0.68322719  0.24903575  0.23834036     1.01200
C1410       C  0.76795159  0.25535243  0.26260988     1.14200
C1411       C  0.68286043  0.19173015  0.29418647     1.04900
O1412       O  0.64054420  0.21347806  0.34686818    -0.94700
O1413       O  0.65639676  0.23088655  0.39066758    -0.90400
O1414       O  0.66778679  0.26021090  0.40709707    -0.83600
C1415       C  0.65410119  0.24565289  0.40675637     1.11600
O1416       O  0.77184938  0.20415421  0.34846156    -0.96700
Zr1417     Zr  0.74682717  0.23006683  0.36547548     1.88900
O1418       O  0.72729318  0.26326312  0.42410727    -0.73300
O1419       O  0.68970149  0.19465928  0.37955011    -0.52600
O1420       O  0.74112164  0.20060371  0.39269144    -0.97200
O1421       O  0.78777674  0.23794064  0.36824672    -0.54500
O1422       O  0.75323756  0.23968569  0.41358005    -0.73800
C1423       C  0.74423714  0.25201331  0.43040964     0.98500
O1424       O  0.68233122  0.29030092  0.41583841    -0.62600
O1425       O  0.74310130  0.30564688  0.28854534    -0.57400
O1426       O  0.71599478  0.30307852  0.38197661    -0.94100
O1427       O  0.73752606  0.30840554  0.34277603    -0.92600
O1428       O  0.68328994  0.29968076  0.27768084    -0.92900
O1429       O  0.65192287  0.29574057  0.32164936    -0.91700
C1430       C  0.72761222  0.31402969  0.36542967     1.17400
H1431       H  0.71709908  0.26993946  0.26893563     0.33300
H1432       H  0.65887117  0.26007878  0.35665978     0.44200
H1433       H  0.75251202  0.27067856  0.37804436     0.37700
H1434       H  0.72155473  0.20233561  0.33295526     0.34200
H1435       H  0.63125657  0.26927062  0.28101748     0.26000
H1436       H  0.68119823  0.19680776  0.39737022     0.31900
H1437       H  0.75310939  0.20094306  0.40755318     0.37800
H1438       H  0.69143549  0.30829828  0.29102194     0.32300
H1439       H  0.75963645  0.30903414  0.28687231     0.31100
H1440       H  0.78031808  0.29246358  0.35108449     0.32800
H1441       H  0.78857018  0.24993946  0.37956037     0.31800
H1442       H  0.65614146  0.29703204  0.34178288     0.35800
H1443       H  0.69426996  0.29616801  0.42805168     0.28500
H1444       H  0.73441866  0.20180327  0.24732597     0.32700
H1445       H  0.78147025  0.20029300  0.36478134     0.35600
H1446       H  0.73874693  0.30079140  0.26966742     0.28200
H1447       H  0.67601106  0.30112796  0.40453313     0.41100
H1448       H  0.63252268  0.22528543  0.34019559     0.31100
H1449       H  0.63504178  0.24910544  0.29533966     0.38800
H1450       H  0.79197003  0.24205031  0.34894193     0.30600
H1451       H  0.68143545  0.18388759  0.37029285     0.30700
H1452       H  0.74427852  0.19465493  0.27642440     0.30900
Zr1453     Zr  0.58745492  0.52881115  0.78261374     2.17500
O1454       O  0.56565903  0.55130657  0.75319076    -0.51400
O1455       O  0.60907864  0.52135760  0.73995341    -0.74600
O1456       O  0.60519748  0.56102151  0.78065572    -0.81400
O1457       O  0.54301310  0.48858096  0.77333333    -0.83200
O1458       O  0.63400306  0.56163139  0.81314850    -0.78800
O1459       O  0.55145241  0.51927353  0.75959188    -0.90400
O1460       O  0.63816879  0.50068666  0.75136873    -0.76400
O1461       O  0.62557971  0.52406321  0.80023269    -0.85900
O1462       O  0.59452475  0.49477500  0.78194727    -0.85600
O1463       O  0.58752421  0.54290507  0.82900626    -0.72300
O1464       O  0.55902485  0.51469530  0.81300568    -0.84500
Zr1465     Zr  0.60439630  0.48976284  0.87801939     2.26400
Zr1466     Zr  0.62551784  0.53682898  0.84715357     2.06300
Zr1467     Zr  0.56704990  0.48069882  0.81338418     2.10000
Zr1468     Zr  0.63238040  0.49022499  0.79980571     1.78800
O1469       O  0.52795538  0.47206929  0.82718771    -0.93300
O1470       O  0.67279219  0.49979549  0.79732866    -0.41100
O1471       O  0.60515943  0.47570812  0.83148211    -0.77700
O1472       O  0.63324405  0.50282397  0.84668365    -0.96400
O1473       O  0.59732731  0.52367636  0.87837457    -0.89700
O1474       O  0.56633363  0.49409144  0.85992508    -0.92500
C1475       C  0.62715524  0.51143966  0.73387485     1.01200
C1476       C  0.53939252  0.50371469  0.75838919     1.14200
C1477       C  0.62298044  0.56877381  0.79225349     1.04900
O1478       O  0.66515160  0.54834293  0.84618971    -0.94700
O1479       O  0.64970531  0.52933337  0.88758254    -0.90400
O1480       O  0.63906988  0.49964271  0.90332135    -0.83600
C1481       C  0.65231393  0.51450434  0.90350932     1.11600
O1482       O  0.53378276  0.55275884  0.84001493    -0.96700
Zr1483     Zr  0.55959436  0.52815306  0.85934183     1.88900
O1484       O  0.58016598  0.49649424  0.91948696    -0.73300
O1485       O  0.61400844  0.56489009  0.87484448    -0.52600
O1486       O  0.56315766  0.55767077  0.88706666    -0.97200
O1487       O  0.51896013  0.51919935  0.86213916    -0.54500
O1488       O  0.55330380  0.51905362  0.90765406    -0.73800
C1489       C  0.56283221  0.50750665  0.92523783     0.98500
O1490       O  0.62622637  0.46890084  0.90992814    -0.62600
O1491       O  0.56775796  0.45529294  0.77784433    -0.57400
O1492       O  0.59069559  0.45646492  0.87855004    -0.94100
O1493       O  0.57071142  0.45015384  0.83842085    -0.92600
O1494       O  0.62749234  0.45925859  0.77616491    -0.92900
O1495       O  0.66059406  0.46583640  0.81362641    -0.91700
C1496       C  0.57957562  0.44510151  0.86209278     1.17400
H1497       H  0.59275838  0.48947014  0.76325182     0.33300
H1498       H  0.64868752  0.50013155  0.85322279     0.44200
H1499       H  0.55517768  0.48741750  0.87145556     0.37700
H1500       H  0.58452629  0.55662513  0.82802908     0.34200
H1501       H  0.67880745  0.49360121  0.77999990     0.26000
H1502       H  0.62207434  0.56328554  0.89308632     0.31900
H1503       H  0.56655473  0.56802133  0.87329112     0.37800
H1504       H  0.62014741  0.46238285  0.75789151     0.32300
H1505       H  0.58053382  0.44658159  0.78348386     0.31100
H1506       H  0.51889525  0.48410554  0.82468203     0.32800
H1507       H  0.51285015  0.52640451  0.87856283     0.31800
H1508       H  0.65365721  0.45945651  0.83024722     0.35800
H1509       H  0.61474531  0.46300669  0.92274006     0.28500
H1510       H  0.57689572  0.55673337  0.73963683     0.32700
H1511       H  0.52483901  0.55781337  0.85620853     0.35600
H1512       H  0.55355939  0.44772786  0.78132199     0.28200
H1513       H  0.63211848  0.45810662  0.89823045     0.41100
H1514       H  0.67299967  0.53986640  0.83235398     0.31100
H1515       H  0.67236008  0.51375643  0.79277184     0.38800
H1516       H  0.51894986  0.50553600  0.86830379     0.30600
H1517       H  0.62182645  0.57595434  0.86574302     0.30700
H1518       H  0.56144866  0.56220350  0.76572189     0.30900
Zr1519     Zr  0.58786279  0.23211051  0.00396706     2.17500
O1520       O  0.56546362  0.20922574  0.03187982    -0.51400
O1521       O  0.60964743  0.23983569  0.04614302    -0.74600
O1522       O  0.60598910  0.20011209  0.00724192    -0.81400
O1523       O  0.54370867  0.27272630  0.01282194    -0.83200
O1524       O  0.63363015  0.19847332  0.97336057    -0.78800
O1525       O  0.55224226  0.24215230  0.02732141    -0.90400
O1526       O  0.63948473  0.25944049  0.03417347    -0.76400
O1527       O  0.62587238  0.23625117  0.98597157    -0.85900
O1528       O  0.59537718  0.26603882  0.00432989    -0.85600
O1529       O  0.58746522  0.21789371  0.95776071    -0.72300
O1530       O  0.55954913  0.24661990  0.97389359    -0.84500
Zr1531     Zr  0.60446270  0.27056528  0.90821975     2.26400
Zr1532     Zr  0.62538167  0.22336765  0.93919752     2.06300
Zr1533     Zr  0.56796441  0.28049545  0.97304675     2.10000
Zr1534     Zr  0.63314618  0.26995420  0.98602438     1.78800
O1535       O  0.52907466  0.28948114  0.95853230    -0.93300
O1536       O  0.67310600  0.25887736  0.98761273    -0.41100
O1537       O  0.60594692  0.28478860  0.95451306    -0.77700
O1538       O  0.63352318  0.25727345  0.93925684    -0.96400
O1539       O  0.59702012  0.23677945  0.90822774    -0.89700
O1540       O  0.56660078  0.26691834  0.92668195    -0.92500
C1541       C  0.62813436  0.24919621  0.05184368     1.01200
C1542       C  0.54011397  0.25774681  0.02806983     1.14200
C1543       C  0.62324839  0.19190489  0.99510326     1.04900
O1544       O  0.66432894  0.21002832  0.93967921    -0.94700
O1545       O  0.64965800  0.23084060  0.89898787    -0.90400
O1546       O  0.63865447  0.26033966  0.88258167    -0.83600
C1547       C  0.65184409  0.24541395  0.88250556     1.11600
O1548       O  0.53247007  0.20915317  0.94617807    -0.96700
Zr1549     Zr  0.55942135  0.23299834  0.92774486     1.88900
O1550       O  0.58007507  0.26364159  0.86718859    -0.73300
O1551       O  0.61324165  0.19618685  0.91029724    -0.52600
O1552       O  0.56224965  0.20252168  0.90220044    -0.97200
O1553       O  0.51937746  0.24397520  0.92689782    -0.54500
O1554       O  0.55284536  0.24165334  0.87926809    -0.73800
C1555       C  0.56251402  0.25298222  0.86159945     0.98500
O1556       O  0.62511302  0.29134709  0.87522127    -0.62600
O1557       O  0.57038725  0.30754280  0.00589792    -0.57400
O1558       O  0.59029924  0.30374736  0.90695177    -0.94100
O1559       O  0.57187348  0.31079980  0.94789886    -0.92600
O1560       O  0.62862482  0.30015037  0.01186082    -0.92900
O1561       O  0.66098834  0.29410570  0.97090600    -0.91700
C1562       C  0.57990742  0.31543054  0.92367283     1.17400
H1563       H  0.59393391  0.27143364  0.02301583     0.33300
H1564       H  0.64894044  0.25980076  0.93258272     0.44200
H1565       H  0.55539598  0.27366704  0.91521071     0.37700
H1566       H  0.58434078  0.20421786  0.95887686     0.34200
H1567       H  0.67929082  0.26389947  0.00561869     0.26000
H1568       H  0.61890015  0.19930916  0.89115657     0.31900
H1569       H  0.55166314  0.20389738  0.88594488     0.37800
H1570       H  0.64251778  0.30098386  0.02394607     0.32300
H1571       H  0.55442715  0.31262944  0.00720975     0.31100
H1572       H  0.52528200  0.30104256  0.96993945     0.32800
H1573       H  0.51852049  0.25362957  0.91154052     0.31800
H1574       H  0.65600546  0.29765183  0.95162586     0.35800
H1575       H  0.61325604  0.29687469  0.86248763     0.28500
H1576       H  0.57619301  0.20394040  0.04620841     0.32700
H1577       H  0.52227088  0.20577038  0.93018563     0.35600
H1578       H  0.57338724  0.30172720  0.02459736     0.28200
H1579       H  0.63090118  0.30239950  0.88640991     0.41100
H1580       H  0.67295213  0.21836047  0.95294604     0.31100
H1581       H  0.67207761  0.24473512  0.99052512     0.38800
H1582       H  0.51755848  0.25165471  0.94435804     0.30600
H1583       H  0.62311485  0.18529543  0.91655894     0.30700
H1584       H  0.56210992  0.19827800  0.01909018     0.30900
Zr1585     Zr  0.08681242  0.03201781  0.78573266     2.17500
O1586       O  0.06480009  0.05672266  0.76055861    -0.51400
O1587       O  0.10603523  0.02281048  0.74221172    -0.74600
O1588       O  0.10781860  0.06250467  0.78053060    -0.81400
O1589       O  0.03952462  0.99449563  0.77926730    -0.83200
O1590       O  0.13604780  0.06341598  0.81378854    -0.78800
O1591       O  0.05053516  0.02392629  0.76264666    -0.90400
O1592       O  0.13526424  0.00220247  0.75333042    -0.76400
O1593       O  0.12513258  0.02514448  0.80089741    -0.85900
O1594       O  0.09087206  0.99766566  0.78539364    -0.85600
O1595       O  0.08981562  0.04615934  0.83185342    -0.72300
O1596       O  0.05865649  0.01980975  0.81806745    -0.84500
Zr1597     Zr  0.10436938  0.99257373  0.88064696     2.26400
Zr1598     Zr  0.12802332  0.03812508  0.84743449     2.06300
Zr1599     Zr  0.06365189  0.98541519  0.81860844     2.10000
Zr1600     Zr  0.12893284  0.99096908  0.80092442     1.78800
O1601       O  0.02389382  0.98071682  0.83378995    -0.93300
O1602       O  0.17010780  0.99755863  0.79723123    -0.41100
O1603       O  0.10191035  0.97831379  0.83440212    -0.77700
O1604       O  0.13281453  0.00375966  0.84730266    -0.96400
O1605       O  0.10021887  0.02679131  0.88076440    -0.89700
O1606       O  0.06599250  0.99884639  0.86499713    -0.92500
C1607       C  0.12395072  0.01274981  0.73597332     1.01200
C1608       C  0.03717019  0.00914644  0.76300278     1.14200
C1609       C  0.12558254  0.07020524  0.79217624     1.04900
O1610       O  0.16914846  0.04464540  0.84312690    -0.94700
O1611       O  0.15295302  0.02949258  0.88626189    -0.90400
O1612       O  0.14111720  0.00033042  0.90280724    -0.83600
C1613       C  0.15526840  0.01456022  0.90195978     1.11600
O1614       O  0.03953456  0.06143488  0.85025094    -0.96700
Zr1615     Zr  0.06212411  0.03320150  0.86426801     1.88900
O1616       O  0.08158985  0.99998051  0.92292164    -0.73300
O1617       O  0.12188515  0.06649617  0.87689856    -0.52600
O1618       O  0.07026970  0.06085310  0.89447770    -0.97200
O1619       O  0.02062936  0.02740159  0.86452870    -0.54500
O1620       O  0.05457199  0.02251543  0.91167047    -0.73800
C1621       C  0.06413324  0.01075244  0.92891237     0.98500
O1622       O  0.12420625  0.97165087  0.91436548    -0.62600
O1623       O  0.06182954  0.95818693  0.78599381    -0.57400
O1624       O  0.08961014  0.95971363  0.88139049    -0.94100
O1625       O  0.06646470  0.95478058  0.84345729    -0.92600
O1626       O  0.12090137  0.96254762  0.77228811    -0.92900
O1627       O  0.15280944  0.96352923  0.81475025    -0.91700
C1628       C  0.07672534  0.94906977  0.86592679     1.17400
H1629       H  0.08806951  0.99237892  0.76687834     0.33300
H1630       H  0.14829400  0.00017080  0.85269833     0.44200
H1631       H  0.05473209  0.99278896  0.87709087     0.37700
H1632       H  0.08789709  0.06000771  0.83082187     0.34200
H1633       H  0.17536500  0.98989790  0.78080470     0.26000
H1634       H  0.13736939  0.06954041  0.88450056     0.31900
H1635       H  0.05781461  0.06091915  0.90875832     0.37800
H1636       H  0.13089693  0.96388463  0.75549348     0.32300
H1637       H  0.06350517  0.96379173  0.76692169     0.31100
H1638       H  0.02477623  0.97123956  0.84937535     0.32800
H1639       H  0.01880355  0.01454025  0.87337564     0.31800
H1640       H  0.14542311  0.95851874  0.83206919     0.35800
H1641       H  0.11205539  0.96634529  0.92680451     0.28500
H1642       H  0.07437627  0.06031418  0.74410294     0.32700
H1643       H  0.03019673  0.06497978  0.86695424     0.35600
H1644       H  0.07641469  0.95098262  0.78903481     0.28200
H1645       H  0.13000904  0.96046336  0.90340755     0.41100
H1646       H  0.17316848  0.04074111  0.82367012     0.31100
H1647       H  0.17099532  0.01114990  0.79079504     0.38800
H1648       H  0.01651735  0.02530786  0.84451288     0.30600
H1649       H  0.11852431  0.07713559  0.86355160     0.30700
H1650       H  0.06477270  0.06827723  0.77287399     0.30900
Zr1651     Zr  0.08883088  0.73526760  0.00019337     2.17500
O1652       O  0.06757293  0.71345445  0.03103214    -0.51400
O1653       O  0.10874942  0.74469931  0.04313006    -0.74600
O1654       O  0.10663344  0.70302084  0.00392720    -0.81400
O1655       O  0.04214165  0.77414490  0.00608146    -0.83200
O1656       O  0.13431299  0.70076505  0.97015369    -0.78800
O1657       O  0.05097851  0.74344977  0.01957414    -0.90400
O1658       O  0.13849385  0.76463006  0.03201730    -0.76400
O1659       O  0.12722793  0.73998892  0.98357850    -0.85900
O1660       O  0.09546211  0.76934771  0.00037839    -0.85600
O1661       O  0.08975347  0.72086449  0.95409072    -0.72300
O1662       O  0.06073337  0.74884503  0.96888029    -0.84500
Zr1663     Zr  0.10673046  0.77388420  0.90501343     2.26400
Zr1664     Zr  0.12799524  0.72673484  0.93702477     2.06300
Zr1665     Zr  0.06803103  0.78279111  0.96833696     2.10000
Zr1666     Zr  0.13358765  0.77391161  0.98326527     1.78800
O1667       O  0.03001563  0.79186478  0.95066003    -0.93300
O1668       O  0.17368618  0.76386847  0.98913719    -0.41100
O1669       O  0.10635634  0.78808409  0.95131217    -0.77700
O1670       O  0.13534354  0.76079185  0.93678764    -0.96400
O1671       O  0.10025837  0.73988169  0.90501717    -0.89700
O1672       O  0.06841293  0.76941725  0.92181960    -0.92500
C1673       C  0.12671961  0.75456703  0.04944762     1.01200
C1674       C  0.03824781  0.75870009  0.02013747     1.14200
C1675       C  0.12360756  0.69435047  0.99179107     1.04900
O1676       O  0.16823899  0.71687309  0.94125429    -0.94700
O1677       O  0.15153039  0.73358378  0.89607324    -0.90400
O1678       O  0.14101549  0.76325376  0.87972697    -0.83600
C1679       C  0.15397517  0.74816289  0.87968018     1.11600
O1680       O  0.03555940  0.71121006  0.94056505    -0.96700
Zr1681     Zr  0.06226233  0.73537961  0.92272926     1.88900
O1682       O  0.08391532  0.76684050  0.86277234    -0.73300
O1683       O  0.11925578  0.69851433  0.90833735    -0.52600
O1684       O  0.06448447  0.70487855  0.89726084    -0.97200
O1685       O  0.02201640  0.74546350  0.91892968    -0.54500
O1686       O  0.05820376  0.74329492  0.87362117    -0.73800
C1687       C  0.06758882  0.75508048  0.85636790     0.98500
O1688       O  0.12920502  0.79553162  0.87514870    -0.62600
O1689       O  0.06680260  0.80753725  0.00485082    -0.57400
O1690       O  0.09182864  0.80702845  0.90395824    -0.94100
O1691       O  0.07289208  0.81342368  0.94484327    -0.92600
O1692       O  0.12853909  0.80466904  0.00752460    -0.92900
O1693       O  0.16131678  0.79779745  0.96683295    -0.91700
C1694       C  0.08120792  0.81843374  0.92096947     1.17400
H1695       H  0.09332277  0.77500697  0.01879642     0.33300
H1696       H  0.15079026  0.76336726  0.93021289     0.44200
H1697       H  0.05744768  0.77599296  0.90981439     0.37700
H1698       H  0.08672984  0.70718277  0.95526084     0.34200
H1699       H  0.17292433  0.75131810  0.99912076     0.26000
H1700       H  0.13429612  0.69185297  0.90609554     0.31900
H1701       H  0.07662215  0.70686891  0.88288385     0.37800
H1702       H  0.13888159  0.80389914  0.02409615     0.32300
H1703       H  0.08016631  0.81600274  0.00095173     0.31100
H1704       H  0.01921960  0.78250595  0.95925095     0.32800
H1705       H  0.02227244  0.75801828  0.90894161     0.31800
H1706       H  0.15970222  0.79776185  0.94606598     0.35800
H1707       H  0.11808007  0.80162467  0.86199239     0.28500
H1708       H  0.07876248  0.70907402  0.04547580     0.32700
H1709       H  0.03999515  0.70949619  0.96056002     0.35600
H1710       H  0.05311171  0.81553019  0.00019297     0.28200
H1711       H  0.13447581  0.80610636  0.88762963     0.41100
H1712       H  0.17671334  0.72894922  0.94534559     0.31100
H1713       H  0.17903905  0.76048415  0.96996216     0.38800
H1714       H  0.01739495  0.74875174  0.93843082     0.30600
H1715       H  0.11024641  0.68987745  0.92076439     0.30700
H1716       H  0.06419201  0.70185267  0.01954656     0.30900
Zr1717     Zr  0.21878509  0.02886416  0.50083213     2.17500
O1718       O  0.23997846  0.05125473  0.53088417    -0.51400
O1719       O  0.19825227  0.02067775  0.54377495    -0.74600
O1720       O  0.20133289  0.06141175  0.50276928    -0.81400
O1721       O  0.26497379  0.98930135  0.50766352    -0.83200
O1722       O  0.17180746  0.06246862  0.47122770    -0.78800
O1723       O  0.25608495  0.01991030  0.52159122    -0.90400
O1724       O  0.16859816  0.00066763  0.53263064    -0.76400
O1725       O  0.18029433  0.02389160  0.48467522    -0.85900
O1726       O  0.21247818  0.99467970  0.50115467    -0.85600
O1727       O  0.21724270  0.04296077  0.45456785    -0.72300
O1728       O  0.24685729  0.01522391  0.46957689    -0.84500
Zr1729     Zr  0.20077759  0.98989182  0.40572547     2.26400
Zr1730     Zr  0.17895812  0.03669890  0.43783552     2.06300
Zr1731     Zr  0.23977963  0.98116628  0.46885960     2.10000
Zr1732     Zr  0.17419379  0.99000431  0.48451926     1.78800
O1733       O  0.27892373  0.97468826  0.45262825    -0.93300
O1734       O  0.13415027  0.00085069  0.48617239    -0.41100
O1735       O  0.20136957  0.97582141  0.45224371    -0.77700
O1736       O  0.17216188  0.00259405  0.43776377    -0.96400
O1737       O  0.20686554  0.02391074  0.40561552    -0.89700
O1738       O  0.23908130  0.99457902  0.42247070    -0.92500
C1739       C  0.18007556  0.01106559  0.54996693     1.01200
C1740       C  0.26872677  0.00456815  0.52222725     1.14200
C1741       C  0.18359199  0.06961790  0.49152385     1.04900
O1742       O  0.13794727  0.04419505  0.44125117    -0.94700
O1743       O  0.15580402  0.02978993  0.39648895    -0.90400
O1744       O  0.16616880  0.99999127  0.38055757    -0.83600
C1745       C  0.15315445  0.01504966  0.38043983     1.11600
O1746       O  0.27107881  0.05373900  0.43976668    -0.96700
Zr1747     Zr  0.24488522  0.02866936  0.42339982     1.88900
O1748       O  0.22399282  0.99669808  0.36372044    -0.73300
O1749       O  0.18754829  0.06558396  0.41053758    -0.52600
O1750       O  0.24049243  0.05861585  0.39694767    -0.97200
O1751       O  0.28582182  0.02053718  0.42112680    -0.54500
O1752       O  0.25107084  0.01893476  0.37543379    -0.73800
C1753       C  0.24151031  0.00737775  0.35802682     0.98500
O1754       O  0.17856466  0.96780622  0.37616206    -0.62600
O1755       O  0.24000351  0.95332411  0.50035404    -0.57400
O1756       O  0.21659690  0.95728968  0.40323376    -0.94100
O1757       O  0.23650976  0.95098084  0.44342882    -0.92600
O1758       O  0.17587732  0.96116296  0.51387366    -0.92900
O1759       O  0.14821289  0.96445981  0.46918394    -0.91700
C1760       C  0.22799952  0.94602990  0.41959119     1.17400
H1761       H  0.21462385  0.98922903  0.51971175     0.33300
H1762       H  0.15673346  0.99981007  0.43130128     0.44200
H1763       H  0.25022533  0.98811547  0.41059077     0.37700
H1764       H  0.21994817  0.05670701  0.45527736     0.34200
H1765       H  0.12694097  0.99289390  0.50108798     0.26000
H1766       H  0.18299595  0.06231703  0.39101279     0.31900
H1767       H  0.23043749  0.05524634  0.38082320     0.37800
H1768       H  0.18851888  0.95330395  0.50570697     0.32300
H1769       H  0.25609585  0.94846409  0.49989052     0.31100
H1770       H  0.28485094  0.96456107  0.46549701     0.32800
H1771       H  0.28681385  0.00917494  0.40850476     0.31800
H1772       H  0.15637509  0.95811922  0.45334295     0.35800
H1773       H  0.18946327  0.96275311  0.36184792     0.28500
H1774       H  0.22862596  0.05628792  0.54466787     0.32700
H1775       H  0.26215104  0.06116233  0.45390153     0.35600
H1776       H  0.23809105  0.95869808  0.51953599     0.28200
H1777       H  0.17468774  0.95658291  0.38819740     0.41100
H1778       H  0.13037863  0.03155769  0.44434488     0.31100
H1779       H  0.13479854  0.01400568  0.49434983     0.38800
H1780       H  0.28956099  0.01535442  0.44003382     0.30600
H1781       H  0.17595180  0.07523298  0.41671582     0.30700
H1782       H  0.24387455  0.06241839  0.51874266     0.30900
Zr1783     Zr  0.22016880  0.73182350  0.28463266     2.17500
O1784       O  0.24292543  0.70743798  0.25986898    -0.51400
O1785       O  0.19911465  0.73977810  0.24190791    -0.74600
O1786       O  0.20016637  0.70061086  0.28143312    -0.81400
O1787       O  0.26523912  0.77122291  0.27461033    -0.83200
O1788       O  0.17245701  0.70035062  0.31532796    -0.78800
O1789       O  0.25545435  0.74103383  0.25982032    -0.90400
O1790       O  0.16885304  0.75915306  0.25368421    -0.76400
O1791       O  0.18215488  0.73719502  0.30208343    -0.85900
O1792       O  0.21362344  0.76592539  0.28318782    -0.85600
O1793       O  0.21986261  0.71843581  0.33138319    -0.72300
O1794       O  0.24880019  0.74599518  0.31457892    -0.84500
Zr1795     Zr  0.20356994  0.77241739  0.37884785     2.26400
Zr1796     Zr  0.18200497  0.72508937  0.34929364     2.06300
Zr1797     Zr  0.24131553  0.78003686  0.31422217     2.10000
Zr1798     Zr  0.17578869  0.77105597  0.30082174     1.78800
O1799       O  0.28052565  0.78749553  0.32907101    -0.93300
O1800       O  0.13549732  0.76104965  0.30071421    -0.41100
O1801       O  0.20326465  0.78573217  0.33194291    -0.77700
O1802       O  0.17469579  0.75914332  0.34785805    -0.96400
O1803       O  0.21029649  0.73844029  0.38021147    -0.89700
O1804       O  0.24156077  0.76741524  0.36112461    -0.92500
C1805       C  0.18050011  0.74904691  0.23611077     1.01200
C1806       C  0.26815231  0.75625367  0.25912228     1.14200
C1807       C  0.18248527  0.69316906  0.29368039     1.04900
O1808       O  0.14282104  0.71258553  0.35122960    -0.94700
O1809       O  0.15737779  0.73405311  0.38863327    -0.90400
O1810       O  0.16839643  0.76370442  0.40417864    -0.83600
C1811       C  0.15483527  0.74903301  0.40427474     1.11600
O1812       O  0.27381341  0.70817916  0.34367362    -0.96700
Zr1813     Zr  0.24800463  0.73334114  0.36133466     1.88900
O1814       O  0.22747512  0.76566229  0.42044992    -0.73300
O1815       O  0.19460013  0.69793136  0.37810104    -0.52600
O1816       O  0.24504337  0.70357765  0.38855556    -0.97200
O1817       O  0.28833039  0.74335288  0.36293622    -0.54500
O1818       O  0.25439474  0.74295035  0.40941998    -0.73800
C1819       C  0.24479693  0.75473710  0.42657414     0.98500
O1820       O  0.18201605  0.79452394  0.40916638    -0.62600
O1821       O  0.24032006  0.80710737  0.28127681    -0.57400
O1822       O  0.21883279  0.80526664  0.37857881    -0.94100
O1823       O  0.23883234  0.81074836  0.33820588    -0.92600
O1824       O  0.18026037  0.80028804  0.27270341    -0.92900
O1825       O  0.14901175  0.79667908  0.31411612    -0.91700
C1826       C  0.23029176  0.81616472  0.36179685     1.17400
H1827       H  0.21535046  0.77099305  0.26435273     0.33300
H1828       H  0.15925523  0.76215106  0.35407212     0.44200
H1829       H  0.25279209  0.77412379  0.37251305     0.37700
H1830       H  0.22260514  0.70467025  0.33068851     0.34200
H1831       H  0.12872306  0.76717763  0.28375528     0.26000
H1832       H  0.18731810  0.70019966  0.39667775     0.31900
H1833       H  0.25643544  0.70492131  0.40397739     0.37800
H1834       H  0.17487001  0.79679895  0.25358403     0.32300
H1835       H  0.25648560  0.80880821  0.27500907     0.31100
H1836       H  0.28521273  0.79844725  0.31694995     0.32800
H1837       H  0.28865248  0.75490587  0.37523018     0.31800
H1838       H  0.15431225  0.80086862  0.33297754     0.35800
H1839       H  0.19346036  0.80012896  0.42231022     0.28500
H1840       H  0.23287896  0.70255869  0.24457811     0.32700
H1841       H  0.28493493  0.70560802  0.35908418     0.35600
H1842       H  0.23210478  0.80230863  0.26440655     0.28200
H1843       H  0.17709765  0.80537454  0.39692056     0.41100
H1844       H  0.13418354  0.72034471  0.33718640     0.31100
H1845       H  0.13595817  0.74708637  0.29615295     0.38800
H1846       H  0.29155643  0.74841472  0.34383679     0.30600
H1847       H  0.18630900  0.68665562  0.37026331     0.30700
H1848       H  0.24451397  0.69651481  0.27322061     0.30900
Zr1849     Zr  0.85357555  0.23717540  0.65842469     2.17500
O1850       O  0.87356980  0.21568315  0.62564363    -0.51400
O1851       O  0.83065399  0.24491798  0.61652080    -0.74600
O1852       O  0.83665083  0.20483972  0.65605527    -0.81400
O1853       O  0.90056296  0.27554776  0.65035343    -0.83200
O1854       O  0.81337174  0.20021089  0.69394288    -0.78800
O1855       O  0.89052141  0.24513352  0.63706704    -0.90400
O1856       O  0.80465576  0.26836713  0.62734067    -0.76400
O1857       O  0.81554846  0.24269151  0.67532619    -0.85900
O1858       O  0.84826445  0.27137854  0.65834479    -0.85600
O1859       O  0.85330565  0.22317876  0.70492282    -0.72300
O1860       O  0.88243677  0.24989338  0.68967949    -0.84500
Zr1861     Zr  0.83667735  0.27664585  0.75349535     2.26400
Zr1862     Zr  0.81500790  0.22947650  0.72192565     2.06300
Zr1863     Zr  0.87641227  0.28411249  0.69029732     2.10000
Zr1864     Zr  0.81028726  0.27682774  0.67589666     1.78800
O1865       O  0.91723844  0.28998384  0.69891256    -0.93300
O1866       O  0.77031882  0.26609505  0.67270494    -0.41100
O1867       O  0.83821301  0.29049171  0.70718336    -0.77700
O1868       O  0.80785938  0.26375883  0.72228750    -0.96400
O1869       O  0.84292627  0.24255188  0.75373308    -0.89700
O1870       O  0.87495740  0.27119154  0.73695051    -0.92500
C1871       C  0.81388187  0.25635559  0.61026617     1.01200
C1872       C  0.90360248  0.26005709  0.63593055     1.14200
C1873       C  0.82279133  0.19459349  0.67093230     1.04900
O1874       O  0.77472602  0.22389163  0.70984992    -0.94700
O1875       O  0.79272386  0.23625219  0.76382844    -0.90400
O1876       O  0.80267573  0.26613301  0.77965488    -0.83600
C1877       C  0.79017088  0.25083521  0.78017926     1.11600
O1878       O  0.90771171  0.21148004  0.72346703    -0.96700
Zr1879     Zr  0.88090589  0.23722105  0.73650971     1.88900
O1880       O  0.85682544  0.26746486  0.79638554    -0.73300
O1881       O  0.81674671  0.20160829  0.75329390    -0.52600
O1882       O  0.87483331  0.20727688  0.76249314    -0.97200
O1883       O  0.92134844  0.24695634  0.73758812    -0.54500
O1884       O  0.88630349  0.24714229  0.78501001    -0.73800
C1885       C  0.87476640  0.25740714  0.80255409     0.98500
O1886       O  0.81690746  0.30315151  0.77747667    -0.62600
O1887       O  0.87133436  0.31289005  0.66131965    -0.57400
O1888       O  0.85459724  0.30861600  0.75744234    -0.94100
O1889       O  0.88087643  0.31138882  0.72199777    -0.92600
O1890       O  0.81372341  0.30757753  0.65127987    -0.92900
O1891       O  0.78328388  0.30180737  0.69098840    -0.91700
C1892       C  0.87066587  0.31764856  0.74418646     1.17400
H1893       H  0.85037864  0.27669273  0.63971631     0.33300
H1894       H  0.79245459  0.26656591  0.72890428     0.44200
H1895       H  0.88608431  0.27750132  0.74896567     0.37700
H1896       H  0.85643639  0.20946601  0.70417446     0.34200
H1897       H  0.76293777  0.27497848  0.65902311     0.26000
H1898       H  0.80186697  0.19487437  0.75044258     0.31900
H1899       H  0.88295130  0.20907295  0.78065283     0.37800
H1900       H  0.82629804  0.30566172  0.63744467     0.32300
H1901       H  0.88426981  0.32146760  0.66664255     0.31100
H1902       H  0.92116906  0.30108681  0.68667676     0.32800
H1903       H  0.92162148  0.25938969  0.74789667     0.31800
H1904       H  0.79067702  0.30773592  0.70767502     0.35800
H1905       H  0.80071832  0.30275877  0.77079412     0.28500
H1906       H  0.86165150  0.21101834  0.61233816     0.32700
H1907       H  0.91736943  0.20919103  0.74037488     0.35600
H1908       H  0.87505061  0.30867120  0.64191752     0.28200
H1909       H  0.81622213  0.29940374  0.79759404     0.41100
H1910       H  0.76685838  0.23632485  0.71378342     0.31100
H1911       H  0.77105008  0.25354491  0.66270736     0.38800
H1912       H  0.92503102  0.25045931  0.71787578     0.30600
H1913       H  0.82845894  0.19285830  0.74496830     0.30700
H1914       H  0.87814739  0.20417896  0.63676433     0.30900
Zr1915     Zr  0.85170764  0.02193953  0.63061361     2.17500
O1916       O  0.87056193  0.04316833  0.66458145    -0.51400
O1917       O  0.82859793  0.01403328  0.67234865    -0.74600
O1918       O  0.83428242  0.05416649  0.63206851    -0.81400
O1919       O  0.89973882  0.98449467  0.63945222    -0.83200
O1920       O  0.81158517  0.05858467  0.59353362    -0.78800
O1921       O  0.88911378  0.01502339  0.65166572    -0.90400
O1922       O  0.80277353  0.99090334  0.66025683    -0.76400
O1923       O  0.81411220  0.01579849  0.61276187    -0.85900
O1924       O  0.84745727  0.98764734  0.63081891    -0.85600
O1925       O  0.85191565  0.03586647  0.58399515    -0.72300
O1926       O  0.88136554  0.00967962  0.60000023    -0.84500
Zr1927     Zr  0.83742707  0.98208484  0.53527944     2.26400
Zr1928     Zr  0.81406635  0.02905174  0.56616467     2.06300
Zr1929     Zr  0.87640727  0.97543522  0.59941057     2.10000
Zr1930     Zr  0.81003618  0.98152369  0.61229138     1.78800
O1931       O  0.91744333  0.97025823  0.59100475    -0.93300
O1932       O  0.76889012  0.98873437  0.61573302    -0.41100
O1933       O  0.83872619  0.96815993  0.58162476    -0.77700
O1934       O  0.80797664  0.99470226  0.56584807    -0.96400
O1935       O  0.84273759  0.01622899  0.53510702    -0.89700
O1936       O  0.87525374  0.98817533  0.55272761    -0.92500
C1937       C  0.81159337  0.00274842  0.67784912     1.01200
C1938       C  0.90246233  0.00022772  0.65328466     1.14200
C1939       C  0.82061618  0.06433291  0.61669656     1.04900
O1940       O  0.77329497  0.03319419  0.57711191    -0.94700
O1941       O  0.79284902  0.02235760  0.52350611    -0.90400
O1942       O  0.80392679  0.99265694  0.50773777    -0.83600
C1943       C  0.79114263  0.00787400  0.50682634     1.11600
O1944       O  0.90607785  0.04831585  0.56659759    -0.96700
Zr1945     Zr  0.88034505  0.02210500  0.55300785     1.88900
O1946       O  0.85831739  0.99090925  0.49285620    -0.73300
O1947       O  0.81610017  0.05648898  0.53405595    -0.52600
O1948       O  0.87471546  0.05120499  0.52484479    -0.97200
O1949       O  0.92105061  0.01303209  0.55462180    -0.54500
O1950       O  0.88746868  0.01118785  0.50510940    -0.73800
C1951       C  0.87641689  0.00081876  0.48725170     0.98500
O1952       O  0.81733084  0.95537305  0.51249811    -0.62600
O1953       O  0.87330124  0.94694833  0.62930027    -0.57400
O1954       O  0.85772731  0.95104747  0.53109400    -0.94100
O1955       O  0.88328498  0.94884289  0.56745556    -0.92600
O1956       O  0.81665478  0.95122374  0.63724057    -0.92900
O1957       O  0.78439574  0.95588701  0.59657529    -0.91700
C1958       C  0.87415101  0.94258271  0.54465517     1.17400
H1959       H  0.84945065  0.98234162  0.64949028     0.33300
H1960       H  0.79281339  0.99173245  0.55864481     0.44200
H1961       H  0.88685512  0.98208155  0.54109588     0.37700
H1962       H  0.85474293  0.04961278  0.58469772     0.34200
H1963       H  0.76799179  0.00114575  0.62606673     0.26000
H1964       H  0.80129226  0.06346160  0.53661073     0.31900
H1965       H  0.86910897  0.04658060  0.50633871     0.37800
H1966       H  0.82130392  0.95500218  0.65653226     0.32300
H1967       H  0.86450505  0.93750166  0.61792763     0.31100
H1968       H  0.92113843  0.95788954  0.60051010     0.32800
H1969       H  0.92262907  0.00199960  0.54147723     0.31800
H1970       H  0.79041133  0.95214824  0.57782666     0.35800
H1971       H  0.80099492  0.95649353  0.51844328     0.28500
H1972       H  0.85824569  0.04751879  0.67760277     0.32700
H1973       H  0.91577355  0.05085817  0.54982636     0.35600
H1974       H  0.88916079  0.94158510  0.63003042     0.28200
H1975       H  0.81731639  0.95846085  0.49212578     0.41100
H1976       H  0.76897599  0.04564298  0.56823353     0.31100
H1977       H  0.76399539  0.99203611  0.59633640     0.38800
H1978       H  0.92330710  0.00730783  0.57353714     0.30600
H1979       H  0.82789179  0.06517822  0.54220598     0.30700
H1980       H  0.87505657  0.05487158  0.65392394     0.30900
Zr1981     Zr  0.95537080  0.24065615  0.13290176     2.17500
O1982       O  0.93654646  0.21933036  0.16675412    -0.51400
O1983       O  0.97936392  0.24884550  0.17366369    -0.74600
O1984       O  0.97284739  0.20856386  0.13477399    -0.81400
O1985       O  0.90696208  0.27774322  0.14220418    -0.83200
O1986       O  0.99377426  0.20336524  0.09497555    -0.78800
O1987       O  0.91834003  0.24755015  0.15514259    -0.90400
O1988       O  0.00539114  0.27167877  0.16093865    -0.76400
O1989       O  0.99278429  0.24652437  0.11420190    -0.85900
O1990       O  0.96002599  0.27486967  0.13279326    -0.85600
O1991       O  0.95464393  0.22639009  0.08649202    -0.72300
O1992       O  0.92530012  0.25275766  0.10277786    -0.84500
Zr1993     Zr  0.96843776  0.27980750  0.03704362     2.26400
Zr1994     Zr  0.99226570  0.23298546  0.06777155     2.06300
Zr1995     Zr  0.93052543  0.28691761  0.10222672     2.10000
Zr1996     Zr  0.99717006  0.28075991  0.11313366     1.78800
O1997       O  0.88960346  0.29354035  0.09513015    -0.93300
O1998       O  0.03809562  0.27251792  0.11391517    -0.41100
O1999       O  0.96781681  0.29398082  0.08323795    -0.77700
O2000       O  0.99839138  0.26726855  0.06687473    -0.96400
O2001       O  0.96313636  0.24568657  0.03741157    -0.89700
O2002       O  0.93096509  0.27376397  0.05573694    -0.92500
C2003       C  0.99662066  0.25995613  0.17872078     1.01200
C2004       C  0.90458176  0.26211548  0.15641654     1.14200
C2005       C  0.98546638  0.19799635  0.11872675     1.04900
O2006       O  0.03286486  0.22821978  0.07921468    -0.94700
O2007       O  0.01270619  0.23962766  0.02434508    -0.90400
O2008       O  0.00039070  0.26870035  0.00738567    -0.83600
C2009       C  0.01351636  0.25366113  0.00671220     1.11600
O2010       O  0.89923815  0.21580013  0.07469066    -0.96700
Zr2011     Zr  0.92579414  0.23986401  0.05597732     1.88900
O2012       O  0.94793372  0.27046244  0.99462103    -0.73300
O2013       O  0.99039393  0.20589313  0.03507625    -0.52600
O2014       O  0.93096759  0.20936183  0.03103500    -0.97200
O2015       O  0.88519976  0.24902767  0.05234360    -0.54500
O2016       O  0.92008754  0.24889415  0.00689482    -0.73800
C2017       C  0.93061204  0.25961969  0.98900411     0.98500
O2018       O  0.99095376  0.30655583  0.01788473    -0.62600
O2019       O  0.93665991  0.31469755  0.13277187    -0.57400
O2020       O  0.94591126  0.30958194  0.03103773    -0.94100
O2021       O  0.92348438  0.31334272  0.07013132    -0.92600
O2022       O  0.99311250  0.31057227  0.14000801    -0.92900
O2023       O  0.02171886  0.30653425  0.09532743    -0.91700
C2024       C  0.93066709  0.31860488  0.04579610     1.17400
H2025       H  0.95847138  0.28029358  0.15145087     0.33300
H2026       H  0.01339520  0.27016946  0.05913722     0.44200
H2027       H  0.91912397  0.27965844  0.04424440     0.37700
H2028       H  0.95166183  0.21268122  0.08746599     0.34200
H2029       H  0.04482438  0.28094018  0.12862995     0.26000
H2030       H  0.00501021  0.19870792  0.03800497     0.31900
H2031       H  0.94042154  0.21263312  0.01434334     0.37800
H2032       H  0.00723595  0.31124489  0.15172332     0.32300
H2033       H  0.94724853  0.32314616  0.12203694     0.31100
H2034       H  0.88679324  0.30612416  0.10447575     0.32800
H2035       H  0.88445667  0.25901895  0.03744006     0.31800
H2036       H  0.01283450  0.31231167  0.07960756     0.35800
H2037       H  0.98814455  0.31756092  0.03078714     0.28500
H2038       H  0.94888842  0.21470910  0.17955183     0.32700
H2039       H  0.89119720  0.21034931  0.05809751     0.35600
H2040       H  0.92172117  0.32168796  0.13264393     0.28200
H2041       H  0.00729599  0.30311649  0.02147728     0.41100
H2042       H  0.04067834  0.23990306  0.07193164     0.31100
H2043       H  0.03876416  0.25937195  0.12212727     0.38800
H2044       H  0.88194939  0.25615803  0.06998998     0.30600
H2045       H  0.97827137  0.19730677  0.04269861     0.30700
H2046       H  0.93174525  0.20778812  0.15591510     0.30900
Zr2047     Zr  0.95218824  0.02505945  0.15622896     2.17500
O2048       O  0.92951798  0.04881960  0.12996424    -0.51400
O2049       O  0.97529604  0.01821418  0.11397968    -0.74600
O2050       O  0.97023851  0.05683651  0.15415435    -0.81400
O2051       O  0.90461385  0.98774655  0.14798808    -0.83200
O2052       O  0.99054102  0.06202756  0.19442505    -0.78800
O2053       O  0.91736634  0.01645778  0.13073863    -0.90400
O2054       O  0.00328249  0.99675156  0.12625310    -0.76400
O2055       O  0.98994717  0.02003324  0.17445491    -0.85900
O2056       O  0.95831603  0.99096712  0.15502543    -0.85600
O2057       O  0.95112592  0.03820947  0.20326357    -0.72300
O2058       O  0.92306984  0.01137702  0.18627375    -0.84500
Zr2059     Zr  0.96805235  0.98446891  0.25045531     2.26400
Zr2060     Zr  0.98907458  0.03245956  0.22154170     2.06300
Zr2061     Zr  0.92999399  0.97735671  0.18565427     2.10000
Zr2062     Zr  0.99599545  0.98598227  0.17364336     1.78800
O2063       O  0.89033147  0.96583680  0.18781443    -0.93300
O2064       O  0.03648366  0.99547243  0.17361202    -0.41100
O2065       O  0.96784733  0.97116690  0.20360932    -0.77700
O2066       O  0.99706336  0.99838432  0.22044705    -0.96400
O2067       O  0.96090570  0.01835882  0.25186267    -0.89700
O2068       O  0.92996019  0.98956183  0.23277201    -0.92500
C2069       C  0.99336284  0.00797378  0.10856941     1.01200
C2070       C  0.90306799  0.00234495  0.13144302     1.14200
C2071       C  0.98261264  0.06737466  0.17046295     1.04900
O2072       O  0.02947384  0.03993469  0.21268830    -0.94700
O2073       O  0.01111998  0.02528210  0.26357526    -0.90400
O2074       O  0.00215744  0.99462634  0.27691010    -0.83600
C2075       C  0.01417039  0.01016193  0.27874193     1.11600
O2076       O  0.89769708  0.04955121  0.21879509    -0.96700
Zr2077     Zr  0.92317755  0.02332699  0.23353167     1.88900
O2078       O  0.94696902  0.99315082  0.29309399    -0.73300
O2079       O  0.98308742  0.05922157  0.25413972    -0.52600
O2080       O  0.92713136  0.05144048  0.26407086    -0.97200
O2081       O  0.88279871  0.01347528  0.23185609    -0.54500
O2082       O  0.91616361  0.01183094  0.28101134    -0.73800
C2083       C  0.92812636  0.00214210  0.29883331     0.98500
O2084       O  0.98723301  0.95793175  0.27509516    -0.62600
O2085       O  0.93993269  0.95089230  0.15403124    -0.57400
O2086       O  0.95013714  0.95255754  0.25339604    -0.94100
O2087       O  0.92364838  0.95092618  0.21805584    -0.92600
O2088       O  0.99440564  0.95754971  0.14347437    -0.92900
O2089       O  0.02018263  0.95972353  0.19109936    -0.91700
C2090       C  0.93347296  0.94428284  0.24024005     1.17400
H2091       H  0.95680958  0.98586935  0.13616586     0.33300
H2092       H  0.01246831  0.99574414  0.22720101     0.44200
H2093       H  0.91856527  0.98306758  0.24417228     0.37700
H2094       H  0.94773022  0.05188807  0.20266888     0.34200
H2095       H  0.04431174  0.98583641  0.16146991     0.26000
H2096       H  0.99733829  0.06702478  0.25274682     0.31900
H2097       H  0.93743007  0.04717808  0.27954224     0.37800
H2098       H  0.00989144  0.95674334  0.13470967     0.32300
H2099       H  0.94477632  0.94022333  0.16664164     0.31100
H2100       H  0.88999725  0.95420777  0.17566090     0.32800
H2101       H  0.88015353  0.00603794  0.24936492     0.31800
H2102       H  0.01284744  0.95575120  0.20901263     0.35800
H2103       H  0.00334427  0.95783284  0.26812496     0.28500
H2104       H  0.94000953  0.05427037  0.11556448     0.32700
H2105       H  0.88709733  0.05173187  0.23485440     0.35600
H2106       H  0.92499990  0.94659879  0.14609820     0.28200
H2107       H  0.98829271  0.96196313  0.29507251     0.41100
H2108       H  0.03797068  0.02790716  0.21733927     0.31100
H2109       H  0.03696279  0.00761380  0.16258393     0.38800
H2110       H  0.88214384  0.00367758  0.21667760     0.30600
H2111       H  0.97097841  0.06734699  0.24532088     0.30700
H2112       H  0.92649646  0.05953978  0.14330737     0.30900
C2113       C  0.99149497  0.11810660  0.16432195     0.20200
C2114       C  0.99227597  0.13727042  0.17394900    -0.39600
C2115       C  0.99194036  0.15151664  0.15295396     0.19200
C2116       C  0.99136021  0.14697006  0.12455077     0.21900
C2117       C  0.99016703  0.12783072  0.11495609    -0.40100
C2118       C  0.99006361  0.11360767  0.13595149     0.20700
N2119       N  0.99015776  0.10204145  0.18006913    -0.33400
C2120       C  0.98732917  0.08728399  0.16163102    -0.11000
C2121       C  0.98721178  0.09389845  0.13390004    -0.29800
N2122       N  0.99027293  0.16307027  0.10885753    -0.46400
C2123       C  0.98962000  0.17795163  0.12737186    -0.05700
C2124       C  0.99061105  0.17136130  0.15510796    -0.23000
H2125       H  0.99238380  0.14082693  0.19615252     0.18800
H2126       H  0.98868564  0.12431150  0.09281467     0.17600
H2127       H  0.98462051  0.08550629  0.11492302     0.13900
H2128       H  0.98966981  0.17988848  0.17419419     0.13700
H2129       H  0.98993582  0.10126475  0.20204685     0.31900
H2130       H  0.98872397  0.16386026  0.08695934     0.34600
C2131       C  0.91967806  0.00150866  0.37330950     0.20200
C2132       C  0.92606883  0.00223076  0.40180802    -0.39600
C2133       C  0.90784183  0.00148061  0.42120762     0.19200
C2134       C  0.88503413  0.99980029  0.41284383     0.21900
C2135       C  0.87860003  0.99955543  0.38434256    -0.40100
C2136       C  0.89680401  0.00062070  0.36493784     0.20700
N2137       N  0.93374602  0.00178181  0.35082120    -0.33400
C2138       C  0.91971138  0.00144644  0.32799281    -0.11000
C2139       C  0.89654044  0.00085335  0.33590644    -0.29800
N2140       N  0.87102288  0.99888538  0.43533703    -0.46400
C2141       C  0.88496321  0.00041340  0.45814828    -0.05700
C2142       C  0.90804205  0.00212598  0.45022392    -0.23000
H2143       H  0.94391064  0.00329189  0.40838471     0.18800
H2144       H  0.86074729  0.99860193  0.37776999     0.17600
H2145       H  0.88158439  0.00043066  0.32224880     0.13900
H2146       H  0.92291711  0.00354814  0.46386259     0.13700
H2147       H  0.95175359  0.00252272  0.35095224     0.31900
H2148       H  0.85304534  0.99774917  0.43520203     0.34600
C2149       C  0.90589098  0.25720382  0.86732042     0.20200
C2150       C  0.92543716  0.25647698  0.88471417    -0.39600
C2151       C  0.92118472  0.25824125  0.91365343     0.19200
C2152       C  0.89909737  0.26020370  0.92446620     0.21900
C2153       C  0.87958360  0.26140814  0.90700790    -0.40100
C2154       C  0.88388486  0.25996658  0.87800918     0.20700
N2155       N  0.90532960  0.25561184  0.83915966    -0.33400
C2156       C  0.88288340  0.25778427  0.83180722    -0.11000
C2157       C  0.86894872  0.26059716  0.85541770    -0.29800
N2158       N  0.89962108  0.26071317  0.95274821    -0.46400
C2159       C  0.92222189  0.25947253  0.95987796    -0.05700
C2160       C  0.93623214  0.25804438  0.93611761    -0.23000
H2161       H  0.94267041  0.25458072  0.87633557     0.18800
H2162       H  0.86233785  0.26322558  0.91538442     0.17600
H2163       H  0.85041388  0.26259801  0.85595866     0.13900
H2164       H  0.95483935  0.25664355  0.93544821     0.13700
H2165       H  0.91938373  0.25350354  0.82570989     0.31900
H2166       H  0.88554840  0.26204980  0.96637016     0.34600
C2167       C  0.81343431  0.14387829  0.66363802     0.20200
C2168       C  0.81280834  0.12461012  0.67287482    -0.39600
C2169       C  0.81297597  0.11053225  0.65161836     0.19200
C2170       C  0.81308927  0.11530392  0.62329046     0.21900
C2171       C  0.81410214  0.13457265  0.61405863    -0.40100
C2172       C  0.81456474  0.14864274  0.63534381     0.20700
N2173       N  0.81511244  0.15978623  0.67971682    -0.33400
C2174       C  0.81797420  0.17473473  0.66161247    -0.11000
C2175       C  0.81769321  0.16838432  0.63371883    -0.29800
N2176       N  0.81438793  0.09930236  0.60732123    -0.46400
C2177       C  0.81579266  0.08428773  0.62559283    -0.05700
C2178       C  0.81490316  0.09069308  0.65342514    -0.23000
H2179       H  0.81311865  0.12084915  0.69500358     0.18800
H2180       H  0.81537906  0.13828969  0.59196832     0.17600
H2181       H  0.82015474  0.17696470  0.61489888     0.13900
H2182       H  0.81644788  0.08206891  0.67236169     0.13700
H2183       H  0.81556430  0.16033202  0.70170359     0.31900
H2184       H  0.81576282  0.09869451  0.58539564     0.34600
C2185       C  0.10236080  0.00383595  0.34170360     0.20200
C2186       C  0.08503476  0.99184038  0.33081334    -0.39600
C2187       C  0.06551701  0.00138019  0.32012780     0.19200
C2188       C  0.06356814  0.02133549  0.32008923     0.21900
C2189       C  0.08069187  0.03330040  0.33144024    -0.40100
C2190       C  0.10009855  0.02375855  0.34231834     0.20700
N2191       N  0.12238405  0.99832814  0.35351475    -0.33400
C2192       C  0.13273085  0.01483918  0.36217121    -0.11000
C2193       C  0.11937122  0.03101213  0.35550724    -0.29800
N2194       N  0.04428116  0.02693085  0.30670483    -0.46400
C2195       C  0.03377828  0.01044011  0.29829365    -0.05700
C2196       C  0.04635374  0.99416946  0.30656267    -0.23000
H2197       H  0.08674236  0.97625732  0.33040509     0.18800
H2198       H  0.07912069  0.04889580  0.33152868     0.17600
H2199       H  0.12286793  0.04596736  0.36062231     0.13900
H2200       H  0.04282365  0.97920923  0.30150890     0.13700
H2201       H  0.12807358  0.98416311  0.35683870     0.31900
H2202       H  0.03910317  0.04111634  0.30246017     0.34600
C2203       C  0.23520498  0.86179065  0.39600442     0.20200
C2204       C  0.23546560  0.87462115  0.41883538    -0.39600
C2205       C  0.23452521  0.89427646  0.41187433     0.19200
C2206       C  0.23303221  0.90067230  0.38428887     0.21900
C2207       C  0.23328150  0.88784221  0.36138989    -0.40100
C2208       C  0.23460541  0.86816049  0.36834862     0.20700
N2209       N  0.23429670  0.84242799  0.39714032    -0.33400
C2210       C  0.23341847  0.83641168  0.37002885    -0.11000
C2211       C  0.23387521  0.85200235  0.35140607    -0.29800
N2212       N  0.23068148  0.91999017  0.38343821    -0.46400
C2213       C  0.23109630  0.92589092  0.41066111    -0.05700
C2214       C  0.23360911  0.91029854  0.42899195    -0.23000
H2215       H  0.23579483  0.86965110  0.44045134     0.18800
H2216       H  0.23196751  0.89278645  0.33981424     0.17600
H2217       H  0.23252334  0.85158183  0.32867126     0.13900
H2218       H  0.23383875  0.91060859  0.45178776     0.13700
H2219       H  0.23377208  0.83384200  0.41523109     0.31900
H2220       H  0.22872786  0.92860751  0.36551697     0.34600
C2221       C  0.14942180  0.75009666  0.17146035     0.20200
C2222       C  0.13003227  0.75103948  0.15381268    -0.39600
C2223       C  0.13477079  0.75224722  0.12491814     0.19200
C2224       C  0.15709470  0.75289106  0.11451379     0.21900
C2225       C  0.17644413  0.75159825  0.13210973    -0.40100
C2226       C  0.17171358  0.74999164  0.16091420     0.20700
N2227       N  0.14965131  0.74944756  0.19971619    -0.33400
C2228       C  0.17223620  0.74857080  0.20703387    -0.11000
C2229       C  0.18651594  0.74874847  0.18347400    -0.29800
N2230       N  0.15700326  0.75438362  0.08635100    -0.46400
C2231       C  0.13448439  0.75421776  0.07875746    -0.05700
C2232       C  0.12005994  0.75290146  0.10215871    -0.23000
H2233       H  0.11258573  0.75086025  0.16195978     0.18800
H2234       H  0.19389215  0.75184811  0.12397553     0.17600
H2235       H  0.20519658  0.74877931  0.18301958     0.13900
H2236       H  0.10138635  0.75245976  0.10242242     0.13700
H2237       H  0.13539951  0.74973899  0.21319024     0.31900
H2238       H  0.17135072  0.75490506  0.07304920     0.34600
C2239       C  0.02806183  0.00346922  0.04651705     0.20200
C2240       C  0.04686298  0.99705638  0.03021890    -0.39600
C2241       C  0.04700078  0.00319599  0.00203219     0.19200
C2242       C  0.02971815  0.01485973  0.99114246     0.21900
C2243       C  0.01094495  0.02124080  0.00741885    -0.40100
C2244       C  0.01079223  0.01510542  0.03555021     0.20700
N2245       N  0.02391449  0.99959498  0.07373933    -0.33400
C2246       C  0.00388965  0.00882406  0.08027819    -0.11000
C2247       C  0.99515975  0.01869770  0.05693607    -0.29800
N2248       N  0.03379112  0.01885453  0.96397064    -0.46400
C2249       C  0.05378643  0.00969413  0.95727338    -0.05700
C2250       C  0.06258102  0.99968116  0.98050842    -0.23000
H2251       H  0.06036069  0.98796578  0.03886158     0.18800
H2252       H  0.99746013  0.03034544  0.99878525     0.17600
H2253       H  0.97950573  0.02724214  0.05573426     0.13900
H2254       H  0.07825115  0.99114479  0.98156034     0.13700
H2255       H  0.03414762  0.99115656  0.08709563     0.31900
H2256       H  0.02350601  0.02733578  0.95073331     0.34600
C2257       C  0.95135374  0.01352605  0.69440677     0.20200
C2258       C  0.96766288  0.02600633  0.70649006    -0.39600
C2259       C  0.98649389  0.01694892  0.71966886     0.19200
C2260       C  0.98856476  0.99702030  0.72103529     0.21900
C2261       C  0.97247100  0.98459215  0.70869010    -0.40100
C2262       C  0.95391850  0.99362536  0.69518278     0.20700
N2263       N  0.93214692  0.01843637  0.68023416    -0.33400
C2264       C  0.92273621  0.00152410  0.67160901    -0.11000
C2265       C  0.93581900  0.98574534  0.68051188    -0.29800
N2266       N  0.00725870  0.99191019  0.73585890    -0.46400
C2267       C  0.01737515  0.00864641  0.74382966    -0.05700
C2268       C  0.00509241  0.02464935  0.73393059    -0.23000
H2269       H  0.96581887  0.04157094  0.70569627     0.18800
H2270       H  0.97427263  0.96902335  0.70955401     0.17600
H2271       H  0.93270453  0.97058638  0.67638118     0.13900
H2272       H  0.00866836  0.03976599  0.73778687     0.13700
H2273       H  0.92622662  0.03240492  0.67590245     0.31900
H2274       H  0.01258382  0.97785783  0.74074136     0.34600
C2275       C  0.15539074  0.01244517  0.67156564     0.20200
C2276       C  0.17501165  0.01187558  0.65430708    -0.39600
C2277       C  0.17073739  0.01246601  0.62527580     0.19200
C2278       C  0.14858579  0.01310805  0.61431238     0.21900
C2279       C  0.12898568  0.01411651  0.63158664    -0.40100
C2280       C  0.13328683  0.01395086  0.66063259     0.20700
N2281       N  0.15480311  0.01171776  0.69978839    -0.33400
C2282       C  0.13222432  0.01321847  0.70685794    -0.11000
C2283       C  0.11824002  0.01471845  0.68306644    -0.29800
N2284       N  0.14912126  0.01256400  0.58606374    -0.46400
C2285       C  0.17176821  0.01198825  0.57905076    -0.05700
C2286       C  0.18581938  0.01204724  0.60287418    -0.23000
H2287       H  0.19230525  0.01093676  0.66284987     0.18800
H2288       H  0.11167975  0.01486535  0.62304570     0.17600
H2289       H  0.09960346  0.01576936  0.68231650     0.13900
H2290       H  0.20447860  0.01136814  0.60365639     0.13700
H2291       H  0.16888090  0.01044966  0.71343442     0.31900
H2292       H  0.13499982  0.01272114  0.57237139     0.34600
C2293       C  0.07539226  0.86433986  0.88739949     0.20200
C2294       C  0.07343139  0.87738972  0.86490191    -0.39600
C2295       C  0.07297727  0.89700983  0.87231578     0.19200
C2296       C  0.07479457  0.90314777  0.89999269     0.21900
C2297       C  0.07627652  0.89009412  0.92253879    -0.40100
C2298       C  0.07630844  0.87047447  0.91514753     0.20700
N2299       N  0.07709280  0.84499474  0.88586699    -0.33400
C2300       C  0.07868488  0.83878998  0.91285808    -0.11000
C2301       C  0.07809419  0.85422325  0.93174249    -0.29800
N2302       N  0.07578276  0.92251804  0.90128435    -0.46400
C2303       C  0.07420627  0.92875494  0.87428557    -0.05700
C2304       C  0.07222910  0.91329290  0.85561693    -0.23000
H2305       H  0.07274350  0.87263224  0.84320023     0.18800
H2306       H  0.07772452  0.89486256  0.94418263     0.17600
H2307       H  0.07946716  0.85363094  0.95446980     0.13900
H2308       H  0.07159070  0.91387684  0.83284573     0.13700
H2309       H  0.07713953  0.83653130  0.86764309     0.31900
H2310       H  0.07786700  0.93096958  0.91934007     0.34600
C2311       C  0.70167625  0.25674443  0.84227834     0.20200
C2312       C  0.71931491  0.26874367  0.83223360    -0.39600
C2313       C  0.73858163  0.25918837  0.82099864     0.19200
C2314       C  0.73987556  0.23923330  0.81932847     0.21900
C2315       C  0.72234971  0.22723760  0.82960616    -0.40100
C2316       C  0.70333833  0.23677968  0.84142777     0.20700
N2317       N  0.68223458  0.26225029  0.85537713    -0.33400
C2318       C  0.67176844  0.24569006  0.86355117    -0.11000
C2319       C  0.68433441  0.22948073  0.85512487    -0.29800
N2320       N  0.75924964  0.23371793  0.80612017    -0.46400
C2321       C  0.77045680  0.25025653  0.79947057    -0.05700
C2322       C  0.75826861  0.26646678  0.80873853    -0.23000
H2323       H  0.71818986  0.28434824  0.83329117     0.18800
H2324       H  0.72353880  0.21163193  0.82870407     0.17600
H2325       H  0.68060966  0.21446391  0.85956163     0.13900
H2326       H  0.76241912  0.28151213  0.80515037     0.13700
H2327       H  0.67714032  0.27639468  0.86004168     0.31900
H2328       H  0.76406321  0.21960362  0.80086465     0.34600
C2329       C  0.57650455  0.39972981  0.89794790     0.20200
C2330       C  0.57672108  0.38721036  0.92121024    -0.39600
C2331       C  0.57624280  0.36741851  0.91489704     0.19200
C2332       C  0.57604975  0.36060960  0.88747515     0.21900
C2333       C  0.57545914  0.37313988  0.86418998    -0.40100
C2334       C  0.57548705  0.39296933  0.87052695     0.20700
N2335       N  0.57777342  0.41911099  0.89836074    -0.33400
C2336       C  0.57721252  0.42480960  0.87104775    -0.11000
C2337       C  0.57560883  0.40891653  0.85302683    -0.29800
N2338       N  0.57703901  0.34119772  0.88711368    -0.46400
C2339       C  0.57749889  0.33562940  0.91449746    -0.05700
C2340       C  0.57685658  0.35156224  0.93246459    -0.23000
H2341       H  0.57752433  0.39249242  0.94264747     0.18800
H2342       H  0.57531131  0.36784303  0.84273749     0.17600
H2343       H  0.57547373  0.40900127  0.83022756     0.13900
H2344       H  0.57763950  0.35154536  0.95524621     0.13700
H2345       H  0.57916145  0.42793410  0.91613611     0.31900
H2346       H  0.57757215  0.33228140  0.86936242     0.34600
C2347       C  0.77713741  0.24695592  0.49366756     0.20200
C2348       C  0.79414303  0.23901711  0.51131666    -0.39600
C2349       C  0.79596973  0.24739166  0.53808532     0.19200
C2350       C  0.78188607  0.26251016  0.54654699     0.21900
C2351       C  0.76488109  0.27047636  0.52887766    -0.40100
C2352       C  0.76305083  0.26208714  0.50208014     0.20700
N2353       N  0.77202221  0.24150544  0.46730396    -0.33400
C2354       C  0.75453882  0.25319937  0.45873486    -0.11000
C2355       C  0.74842872  0.26627177  0.47988423    -0.29800
N2356       N  0.78678179  0.26769053  0.57310087    -0.46400
C2357       C  0.80410423  0.25581012  0.58166407    -0.05700
C2358       C  0.81035542  0.24294204  0.56035882    -0.23000
H2359       H  0.80508030  0.22714034  0.50471134     0.18800
H2360       H  0.75384192  0.28226841  0.53555754     0.17600
H2361       H  0.73521996  0.27736132  0.47907175     0.13900
H2362       H  0.82336302  0.23168832  0.56120874     0.13700
H2363       H  0.78002655  0.23049205  0.45580047     0.31900
H2364       H  0.77862802  0.27853124  0.58479639     0.34600
C2365       C  0.85263270  0.26872689  0.19546170     0.20200
C2366       C  0.83430143  0.27911966  0.20737454    -0.39600
C2367       C  0.81671275  0.26794904  0.21922145     0.19200
C2368       C  0.81710273  0.24793178  0.21889352     0.21900
C2369       C  0.83554419  0.23751481  0.20707449    -0.40100
C2370       C  0.85336494  0.24871774  0.19556897     0.20700
N2371       N  0.87123321  0.27601825  0.18249245    -0.33400
C2372       C  0.88402523  0.26057209  0.17437950    -0.11000
C2373       C  0.87355931  0.24326872  0.18237305    -0.29800
N2374       N  0.79883288  0.24076995  0.23282685    -0.46400
C2375       C  0.78710655  0.25638603  0.24253481    -0.05700
C2376       C  0.79760787  0.27356219  0.23425707    -0.23000
H2377       H  0.83393566  0.29476261  0.20777919     0.18800
H2378       H  0.83613052  0.22187566  0.20719243     0.17600
H2379       H  0.87940761  0.22870228  0.17797104     0.13900
H2380       H  0.79257154  0.28816877  0.23975381     0.13700
H2381       H  0.87475620  0.29060373  0.17882785     0.31900
H2382       H  0.79535891  0.22623740  0.23697044     0.34600
C2383       C  0.65980499  0.24867848  0.11628274     0.20200
C2384       C  0.67930289  0.24940768  0.13380613    -0.39600
C2385       C  0.67482435  0.24848124  0.16281231     0.19200
C2386       C  0.65260767  0.24731606  0.17345776     0.21900
C2387       C  0.63320982  0.24613925  0.15595005    -0.40100
C2388       C  0.63770617  0.24671373  0.12700473     0.20700
N2389       N  0.65926584  0.24986986  0.08804653    -0.33400
C2390       C  0.63670468  0.24830111  0.08085880    -0.11000
C2391       C  0.62275709  0.24617483  0.10453122    -0.29800
N2392       N  0.65282266  0.24756616  0.20170061    -0.46400
C2393       C  0.67534055  0.24849043  0.20909235    -0.05700
C2394       C  0.68965631  0.24895786  0.18549606    -0.23000
H2395       H  0.69661939  0.25076484  0.12549861     0.18800
H2396       H  0.61586999  0.24504148  0.16426526     0.17600
H2397       H  0.60414411  0.24493689  0.10520229     0.13900
H2398       H  0.70829707  0.24995010  0.18505806     0.13700
H2399       H  0.67332353  0.25157349  0.07450588     0.31900
H2400       H  0.63857664  0.24694714  0.21515260     0.34600
C2401       C  0.63589856  0.51378538  0.65933660     0.20200
C2402       C  0.62952526  0.51472397  0.63081907    -0.39600
C2403       C  0.64767341  0.51312857  0.61138475     0.19200
C2404       C  0.67046434  0.51113919  0.61974616     0.21900
C2405       C  0.67677859  0.50978957  0.64821633    -0.40100
C2406       C  0.65858921  0.51104139  0.66763543     0.20700
N2407       N  0.62190819  0.51478784  0.68188712    -0.33400
C2408       C  0.63571921  0.51225162  0.70467363    -0.11000
C2409       C  0.65871057  0.50982783  0.69662334    -0.29800
N2410       N  0.68450840  0.51035943  0.59726981    -0.46400
C2411       C  0.67050483  0.51144710  0.57447035    -0.05700
C2412       C  0.64740786  0.51309818  0.58234816    -0.23000
H2413       H  0.61174601  0.51646193  0.62424857     0.18800
H2414       H  0.69453111  0.50781348  0.65475542     0.17600
H2415       H  0.67349089  0.50749491  0.71017116     0.13900
H2416       H  0.63251800  0.51428318  0.56866699     0.13700
H2417       H  0.60399527  0.51657243  0.68177148     0.31900
H2418       H  0.70244886  0.50876946  0.59737729     0.34600
C2419       C  0.73132077  0.39921967  0.38250335     0.20200
C2420       C  0.73087920  0.38568961  0.36048292    -0.39600
C2421       C  0.73095821  0.36621776  0.36878269     0.19200
C2422       C  0.73100916  0.36069125  0.39683405     0.21900
C2423       C  0.73191503  0.37418774  0.41876831    -0.40100
C2424       C  0.73226586  0.39359913  0.41048461     0.20700
N2425       N  0.73012006  0.41858014  0.38041222    -0.33400
C2426       C  0.73067862  0.42520832  0.40727846    -0.11000
C2427       C  0.73221451  0.41009464  0.42655100    -0.29800
N2428       N  0.72973363  0.34139462  0.39925072    -0.46400
C2429       C  0.72931818  0.33457431  0.37254473    -0.05700
C2430       C  0.73018203  0.34956923  0.35293156    -0.23000
H2431       H  0.73015529  0.38998844  0.33857568     0.18800
H2432       H  0.73195897  0.36990130  0.44069576     0.17600
H2433       H  0.73213204  0.41104945  0.44931062     0.13900
H2434       H  0.72966274  0.34842770  0.33019837     0.13700
H2435       H  0.72861955  0.42674013  0.36198045     0.31900
H2436       H  0.72925159  0.33335321  0.41786720     0.34600
C2437       C  0.92231921  0.86776582  0.52779271     0.20200
C2438       C  0.92711665  0.88767074  0.52676071    -0.39600
C2439       C  0.90784656  0.90007642  0.52788637     0.19200
C2440       C  0.88547357  0.89318803  0.52959794     0.21900
C2441       C  0.88073103  0.87335393  0.53125850    -0.40100
C2442       C  0.89996410  0.86098507  0.53037284     0.20700
N2443       N  0.93763225  0.85310969  0.52994429    -0.33400
C2444       C  0.92491937  0.83697260  0.53444871    -0.11000
C2445       C  0.90139069  0.84136301  0.53483744    -0.29800
N2446       N  0.87035925  0.90780986  0.53296299    -0.46400
C2447       C  0.88317604  0.92411321  0.53404098    -0.05700
C2448       C  0.90663165  0.91989055  0.53091371    -0.23000
H2449       H  0.94460867  0.89311532  0.52647406     0.18800
H2450       H  0.86339364  0.86797898  0.53437498     0.17600
H2451       H  0.88732678  0.83170054  0.53989006     0.13900
H2452       H  0.92095031  0.92981758  0.53284914     0.13700
H2453       H  0.95559314  0.85424889  0.53080206     0.31900
H2454       H  0.85268182  0.90663279  0.53691829     0.34600
C2455       C  0.03133695  0.76158905  0.73897520     0.20200
C2456       C  0.04806901  0.77019627  0.75629951    -0.39600
C2457       C  0.05043625  0.76216962  0.78327337     0.19200
C2458       C  0.03713596  0.74673684  0.79210783     0.21900
C2459       C  0.02044447  0.73812102  0.77477433    -0.40100
C2460       C  0.01801486  0.74618784  0.74787138     0.20700
N2461       N  0.02563484  0.76668782  0.71263092    -0.33400
C2462       C  0.00852341  0.75451276  0.70463667    -0.11000
C2463       C  0.00323943  0.74149151  0.72609807    -0.29800
N2464       N  0.04204391  0.74217103  0.81887851    -0.46400
C2465       C  0.05849963  0.75480110  0.82737111    -0.05700
C2466       C  0.06435111  0.76746591  0.80563398    -0.23000
H2467       H  0.05828239  0.78237746  0.74938334     0.18800
H2468       H  0.00992942  0.72617075  0.78186658     0.17600
H2469       H  0.99043117  0.73013945  0.72578200     0.13900
H2470       H  0.07660138  0.77923415  0.80633326     0.13700
H2471       H  0.03291048  0.77786485  0.70083229     0.31900
H2472       H  0.03427615  0.73131870  0.83084783     0.34600
C2473       C  0.06518505  0.76049075  0.46386164     0.20200
C2474       C  0.08382389  0.77141030  0.45367274    -0.39600
C2475       C  0.10227475  0.76074776  0.44229657     0.19200
C2476       C  0.10195364  0.74077074  0.44078270     0.21900
C2477       C  0.08344171  0.72986314  0.45115284    -0.40100
C2478       C  0.06519299  0.74049225  0.46292780     0.20700
N2479       N  0.04636201  0.76708093  0.47743245    -0.33400
C2480       C  0.03458559  0.75116491  0.48578245    -0.11000
C2481       C  0.04573212  0.73431157  0.47691362    -0.29800
N2482       N  0.12113389  0.73406355  0.42821976    -0.46400
C2483       C  0.13394219  0.74983257  0.42187972    -0.05700
C2484       C  0.12280549  0.76677523  0.43047913    -0.23000
H2485       H  0.08408702  0.78703083  0.45490090     0.18800
H2486       H  0.08342837  0.71422335  0.45051896     0.17600
H2487       H  0.04097914  0.71953445  0.48157706     0.13900
H2488       H  0.12842717  0.78151437  0.42723095     0.13700
H2489       H  0.04264483  0.78145042  0.48251785     0.31900
H2490       H  0.12501235  0.71965146  0.42358606     0.34600
C2491       C  0.89612960  0.39992003  0.75655010     0.20200
C2492       C  0.87614419  0.38847530  0.75554472    -0.39600
C2493       C  0.87958722  0.36846828  0.75843233     0.19200
C2494       C  0.90137916  0.36051289  0.76176682     0.21900
C2495       C  0.92129500  0.37200367  0.76349514    -0.40100
C2496       C  0.91783234  0.39201404  0.76089113     0.20700
N2497       N  0.89779742  0.41874248  0.74991313    -0.33400
C2498       C  0.92064590  0.42290453  0.75017903    -0.11000
C2499       C  0.93370765  0.40670086  0.75749070    -0.29800
N2500       N  0.90054788  0.34117268  0.75926029    -0.46400
C2501       C  0.87809949  0.33668677  0.75463663    -0.05700
C2502       C  0.86442064  0.35333079  0.75430365    -0.23000
H2503       H  0.85933973  0.39458539  0.75091641     0.18800
H2504       H  0.93839987  0.36572720  0.76483728     0.17600
H2505       H  0.95232902  0.40536771  0.75733476     0.13900
H2506       H  0.84634268  0.35436579  0.74871590     0.13700
H2507       H  0.88434853  0.42790766  0.74373103     0.31900
H2508       H  0.91461385  0.33169123  0.75868454     0.34600
C2509       C  0.85065809  0.49098130  0.59005331     0.20200
C2510       C  0.83250191  0.48030801  0.57841751    -0.39600
C2511       C  0.81519784  0.49119544  0.56519708     0.19200
C2512       C  0.81565594  0.51120031  0.56419394     0.21900
C2513       C  0.83393593  0.52186366  0.57568969    -0.40100
C2514       C  0.85151055  0.51094963  0.58840406     0.20700
N2515       N  0.86908015  0.48404044  0.60387782    -0.33400
C2516       C  0.88188722  0.49967596  0.61083832    -0.11000
C2517       C  0.87159122  0.51673517  0.60141351    -0.29800
N2518       N  0.79751352  0.51807462  0.54961786    -0.46400
C2519       C  0.78576334  0.50230032  0.54078033    -0.05700
C2520       C  0.79620361  0.48528536  0.55018250    -0.23000
H2521       H  0.83207640  0.46467395  0.57920104     0.18800
H2522       H  0.83459210  0.53747334  0.57445540     0.17600
H2523       H  0.87751238  0.53138979  0.60466694     0.13900
H2524       H  0.79104178  0.47057113  0.54573793     0.13700
H2525       H  0.87252301  0.46958171  0.60872360     0.31900
H2526       H  0.79402901  0.53251239  0.54471150     0.34600
C2527       C  0.98935101  0.64334975  0.62170597     0.20200
C2528       C  0.98847627  0.62413059  0.61217028    -0.39600
C2529       C  0.98931718  0.60982479  0.63313870     0.19200
C2530       C  0.99148182  0.61430502  0.66143163     0.21900
C2531       C  0.99205176  0.63354399  0.67100537    -0.40100
C2532       C  0.99060675  0.64787295  0.65006553     0.20700
N2533       N  0.98744212  0.65949958  0.60607757    -0.33400
C2534       C  0.98694303  0.67444646  0.62456061    -0.11000
C2535       C  0.98882059  0.66776199  0.65225108    -0.29800
N2536       N  0.99067981  0.59816554  0.67722899    -0.46400
C2537       C  0.98735129  0.58334438  0.65896694    -0.05700
C2538       C  0.98652223  0.59005044  0.63124247    -0.23000
H2539       H  0.98642401  0.62059337  0.59010454     0.18800
H2540       H  0.99270369  0.63708786  0.69319718     0.17600
H2541       H  0.98846469  0.67627309  0.67137740     0.13900
H2542       H  0.98330790  0.58168498  0.61238390     0.13700
H2543       H  0.98554964  0.66027378  0.58422101     0.31900
H2544       H  0.99093822  0.59739655  0.69920497     0.34600
C2545       C  0.87984892  0.39170221  0.02751499     0.20200
C2546       C  0.87534691  0.37192653  0.03099287    -0.39600
C2547       C  0.89458028  0.35959833  0.02926866     0.19200
C2548       C  0.91663712  0.36634760  0.02392799     0.21900
C2549       C  0.92116029  0.38613026  0.02064387    -0.40100
C2550       C  0.90199028  0.39850106  0.02287335     0.20700
N2551       N  0.86517907  0.40645379  0.03240517    -0.33400
C2552       C  0.87817201  0.42268757  0.03147991    -0.11000
C2553       C  0.90114239  0.41831777  0.02542350    -0.29800
N2554       N  0.93228364  0.35203602  0.02662251    -0.46400
C2555       C  0.92012577  0.33622058  0.03434762    -0.05700
C2556       C  0.89659534  0.34034073  0.03607335    -0.23000
H2557       H  0.85838248  0.36665438  0.03657620     0.18800
H2558       H  0.93855239  0.39159520  0.01845825     0.17600
H2559       H  0.91561859  0.42816784  0.02546740     0.13900
H2560       H  0.88306359  0.33089772  0.04358627     0.13700
H2561       H  0.84795461  0.40542162  0.03872009     0.31900
H2562       H  0.95023228  0.35335767  0.02589671     0.34600
C2563       C  0.78105418  0.49681368  0.23875273     0.20200
C2564       C  0.76406172  0.48856829  0.25603547    -0.39600
C2565       C  0.76192333  0.49662306  0.28299894     0.19200
C2566       C  0.77580265  0.51165372  0.29197996     0.21900
C2567       C  0.79289265  0.51982623  0.27476032    -0.40100
C2568       C  0.79494824  0.51183527  0.24774191     0.20700
N2569       N  0.78595107  0.49210477  0.21202294    -0.33400
C2570       C  0.80306780  0.50418354  0.20379524    -0.11000
C2571       C  0.80924956  0.51669777  0.22557479    -0.29800
N2572       N  0.77021584  0.51691374  0.31828326    -0.46400
C2573       C  0.75261512  0.50522423  0.32621084    -0.05700
C2574       C  0.74694547  0.49230233  0.30474082    -0.23000
H2575       H  0.75313256  0.47690054  0.24887006     0.18800
H2576       H  0.80360292  0.53167553  0.28178934     0.17600
H2577       H  0.82213625  0.52798570  0.22510362     0.13900
H2578       H  0.73373912  0.48127493  0.30501081     0.13700
H2579       H  0.77793449  0.48140545  0.19999943     0.31900
H2580       H  0.77794055  0.52785437  0.33013064     0.34600
C2581       C  0.70533992  0.52235148  0.94005352     0.20200
C2582       C  0.72460937  0.53277752  0.94944240    -0.39600
C2583       C  0.74225175  0.52176094  0.96189595     0.19200
C2584       C  0.74097529  0.50185256  0.96436780     0.21900
C2585       C  0.72160115  0.49145866  0.95523598    -0.40100
C2586       C  0.70380711  0.50250582  0.94318925     0.20700
N2587       N  0.68660012  0.52935057  0.92676689    -0.33400
C2588       C  0.67294955  0.51386166  0.92158861    -0.11000
C2589       C  0.68303325  0.49688660  0.93174585    -0.29800
N2590       N  0.75953352  0.49485541  0.97802662    -0.46400
C2591       C  0.77246988  0.51045404  0.98488881    -0.05700
C2592       C  0.76231120  0.52748459  0.97502146    -0.23000
H2593       H  0.72567494  0.54833693  0.94748093     0.18800
H2594       H  0.72037878  0.47593290  0.95757851     0.17600
H2595       H  0.67663474  0.48227805  0.92958838     0.13900
H2596       H  0.76816669  0.54214579  0.97839344     0.13700
H2597       H  0.68363436  0.54367593  0.92077298     0.31900
H2598       H  0.76240990  0.48052014  0.98403921     0.34600
C2599       C  0.88468580  0.49871805  0.91038988     0.20200
C2600       C  0.87797866  0.49840964  0.88198556    -0.39600
C2601       C  0.89606304  0.49823989  0.86236232     0.19200
C2602       C  0.91902663  0.49781594  0.87048576     0.21900
C2603       C  0.92571976  0.49843780  0.89885445    -0.40100
C2604       C  0.90765776  0.49916067  0.91843994     0.20700
N2605       N  0.87084965  0.49917977  0.93305777    -0.33400
C2606       C  0.88511802  0.50034532  0.95560996    -0.11000
C2607       C  0.90820434  0.50047390  0.94738253    -0.29800
N2608       N  0.93291954  0.49762320  0.84788395    -0.46400
C2609       C  0.91873768  0.49845878  0.82524283    -0.05700
C2610       C  0.89560792  0.49887268  0.83334284    -0.23000
H2611       H  0.86002947  0.49858897  0.87564669     0.18800
H2612       H  0.94366903  0.49863582  0.90518145     0.17600
H2613       H  0.92329776  0.50116798  0.96078664     0.13900
H2614       H  0.88056943  0.49956613  0.81983598     0.13700
H2615       H  0.85281771  0.49904196  0.93319734     0.31900
H2616       H  0.95095321  0.49753821  0.84783396     0.34600
C2617       C  0.92246266  0.89528779  0.25869285     0.20200
C2618       C  0.92755384  0.87541567  0.25934328    -0.39600
C2619       C  0.90845121  0.86294123  0.25845484     0.19200
C2620       C  0.88594136  0.86972839  0.25756593     0.21900
C2621       C  0.88087990  0.88956183  0.25660955    -0.40100
C2622       C  0.89995158  0.90199528  0.25697689     0.20700
N2623       N  0.93751485  0.90993584  0.25552456    -0.33400
C2624       C  0.92443189  0.92592718  0.25106680    -0.11000
C2625       C  0.90098174  0.92155609  0.25201477    -0.29800
N2626       N  0.87102514  0.85508396  0.25375791    -0.46400
C2627       C  0.88410644  0.83889375  0.25151425    -0.05700
C2628       C  0.90751941  0.84320576  0.25445829    -0.23000
H2629       H  0.94512220  0.87005380  0.25877299     0.18800
H2630       H  0.86342597  0.89489459  0.25396096     0.17600
H2631       H  0.88667147  0.93114887  0.24738399     0.13900
H2632       H  0.92198045  0.83343138  0.25176108     0.13700
H2633       H  0.95545188  0.90884367  0.25385059     0.31900
H2634       H  0.85327244  0.85624441  0.25024341     0.34600
C2635       C  0.98863484  0.76951183  0.06137208     0.20200
C2636       C  0.97325013  0.78137046  0.07619297    -0.39600
C2637       C  0.95401055  0.77205305  0.08755903     0.19200
C2638       C  0.95017711  0.75244747  0.08414776     0.21900
C2639       C  0.96574795  0.74050458  0.06952956    -0.40100
C2640       C  0.98523767  0.74980463  0.05846004     0.20700
N2641       N  0.00809133  0.77499138  0.04846009    -0.33400
C2642       C  0.01740294  0.75865497  0.03757610    -0.11000
C2643       C  0.00373461  0.74257984  0.04341701    -0.29800
N2644       N  0.93084387  0.74709010  0.09764232    -0.46400
C2645       C  0.92261105  0.76337462  0.11003792    -0.05700
C2646       C  0.93655888  0.77923070  0.10413843    -0.23000
H2647       H  0.97617694  0.79670277  0.07891609     0.18800
H2648       H  0.96302024  0.72511574  0.06722053     0.17600
H2649       H  0.00659940  0.72778488  0.03683723     0.13900
H2650       H  0.93460805  0.79389693  0.11175038     0.13700
H2651       H  0.01463402  0.78901443  0.04706362     0.31900
H2652       H  0.92423086  0.73310821  0.09933015     0.34600
C2653       C  0.90117405  0.76290866  0.42178647     0.20200
C2654       C  0.88224915  0.76604055  0.40387739    -0.39600
C2655       C  0.88697900  0.76517481  0.37492578     0.19200
C2656       C  0.90882416  0.76116577  0.36460078     0.21900
C2657       C  0.92787750  0.75848295  0.38250091    -0.40100
C2658       C  0.92320859  0.75967311  0.41146575     0.20700
N2659       N  0.90114990  0.76282821  0.45010275    -0.33400
C2660       C  0.92341124  0.76001412  0.45784437    -0.11000
C2661       C  0.93771209  0.75801209  0.43437996    -0.29800
N2662       N  0.90848596  0.75999201  0.33633521    -0.46400
C2663       C  0.88633485  0.76354997  0.32860464    -0.05700
C2664       C  0.87245285  0.76703743  0.35207610    -0.23000
H2665       H  0.86506456  0.76879184  0.41189897     0.18800
H2666       H  0.94502458  0.75555501  0.37448103     0.17600
H2667       H  0.95617963  0.75557862  0.43417594     0.13900
H2668       H  0.85406225  0.76984167  0.35240369     0.13700
H2669       H  0.88699856  0.76504253  0.46335994     0.31900
H2670       H  0.92241193  0.75683552  0.32311933     0.34600
C2671       C  0.82055798  0.65070060  0.13660187     0.20200
C2672       C  0.81921490  0.63769295  0.11391350    -0.39600
C2673       C  0.81980908  0.61797845  0.12102978     0.19200
C2674       C  0.82206274  0.61172762  0.14859930     0.21900
C2675       C  0.82297504  0.62472430  0.17130996    -0.40100
C2676       C  0.82190705  0.64442159  0.16424510     0.20700
N2677       N  0.82163207  0.67011378  0.13534454    -0.33400
C2678       C  0.82323899  0.67625900  0.16240063    -0.11000
C2679       C  0.82328867  0.66065826  0.18104899    -0.29800
N2680       N  0.82392832  0.59235106  0.14965124    -0.46400
C2681       C  0.82242866  0.58615358  0.12261807    -0.05700
C2682       C  0.81971338  0.60171977  0.10415404    -0.23000
H2683       H  0.81824288  0.64256365  0.09227769     0.18800
H2684       H  0.82483723  0.61986289  0.19286421     0.17600
H2685       H  0.82525991  0.66111936  0.20371483     0.13900
H2686       H  0.81888845  0.60123964  0.08138362     0.13700
H2687       H  0.82164390  0.67865928  0.11720267     0.31900
H2688       H  0.82641987  0.58386717  0.16760775     0.34600
C2689       C  0.65126150  0.65013312  0.77808305     0.20200
C2690       C  0.63102768  0.63907129  0.77939438    -0.39600
C2691       C  0.63399802  0.61901232  0.77752348     0.19200
C2692       C  0.65560754  0.61058670  0.77505365     0.21900
C2693       C  0.67589079  0.62168294  0.77338230    -0.40100
C2694       C  0.67287401  0.64183974  0.77481215     0.20700
N2695       N  0.65309230  0.66915737  0.78297162    -0.33400
C2696       C  0.67595728  0.67322499  0.78273341    -0.11000
C2697       C  0.68893352  0.65656477  0.77728013    -0.29800
N2698       N  0.65407440  0.59130036  0.77785585    -0.46400
C2699       C  0.63135743  0.58742427  0.78176310    -0.05700
C2700       C  0.61824593  0.60433155  0.78144511    -0.23000
H2701       H  0.61429007  0.64557673  0.78314405     0.18800
H2702       H  0.69283917  0.61507200  0.77257638     0.17600
H2703       H  0.70753046  0.65507726  0.77794834     0.13900
H2704       H  0.60008878  0.60583422  0.78639315     0.13700
H2705       H  0.63963733  0.67862152  0.78807565     0.31900
H2706       H  0.66777987  0.58147327  0.77894810     0.34600
C2707       C  0.77416679  0.74664172  0.99271879     0.20200
C2708       C  0.79037489  0.73800446  0.01086228    -0.39600
C2709       C  0.79346747  0.74713618  0.03697333     0.19200
C2710       C  0.78126035  0.76358828  0.04438759     0.21900
C2711       C  0.76502406  0.77222613  0.02624450    -0.40100
C2712       C  0.76193552  0.76308939  0.00010184     0.20700
N2713       N  0.76854139  0.74095850  0.96657413    -0.33400
C2714       C  0.75258518  0.75381494  0.95706300    -0.11000
C2715       C  0.74793733  0.76784717  0.97747954    -0.29800
N2716       N  0.78720951  0.76941693  0.07037174    -0.46400
C2717       C  0.80334897  0.75663261  0.07966797    -0.05700
C2718       C  0.80775112  0.74251100  0.05934563    -0.23000
H2719       H  0.79995021  0.72515898  0.00500601     0.18800
H2720       H  0.75555854  0.78514277  0.03203505     0.17600
H2721       H  0.73633511  0.78008674  0.97576408     0.13900
H2722       H  0.81954911  0.73039173  0.06087301     0.13700
H2723       H  0.77541559  0.72914261  0.95569321     0.31900
H2724       H  0.78056594  0.78134756  0.08120021     0.34600
C2725       C  0.82066451  0.74918898  0.72268237     0.20200
C2726       C  0.84064371  0.73922493  0.71430525    -0.39600
C2727       C  0.85668626  0.75006061  0.69890104     0.19200
C2728       C  0.85297493  0.76928722  0.69212786     0.21900
C2729       C  0.83314703  0.77932629  0.70079629    -0.40100
C2730       C  0.81724881  0.76854955  0.71647495     0.20700
N2731       N  0.80307459  0.74227595  0.73807071    -0.33400
C2732       C  0.78860488  0.75744513  0.74209059    -0.11000
C2733       C  0.79685077  0.77408171  0.72896671    -0.29800
N2734       N  0.87036113  0.77611014  0.67637532    -0.46400
C2735       C  0.88533011  0.76115570  0.67320642    -0.05700
C2736       C  0.87747269  0.74468817  0.68712525    -0.23000
H2737       H  0.84348885  0.72415671  0.71941113     0.18800
H2738       H  0.83033903  0.79441555  0.69577084     0.17600
H2739       H  0.78923783  0.78839457  0.72920750     0.13900
H2740       H  0.88542029  0.73050935  0.68757708     0.13700
H2741       H  0.80153279  0.72837108  0.74642827     0.31900
H2742       H  0.87168589  0.78996001  0.66775988     0.34600
C2743       C  0.63285177  0.14236399  0.01023049     0.20200
C2744       C  0.62750080  0.12267733  0.00788824    -0.39600
C2745       C  0.64639000  0.10995775  0.00772557     0.19200
C2746       C  0.66895916  0.11628136  0.01021652     0.21900
C2747       C  0.67434744  0.13600486  0.01211114    -0.40100
C2748       C  0.65544968  0.14876038  0.01180362     0.20700
N2749       N  0.61820963  0.15733025  0.00710581    -0.33400
C2750       C  0.63159247  0.17331275  0.00594560    -0.11000
C2751       C  0.65488857  0.16856634  0.00894569    -0.29800
N2752       N  0.68384365  0.10150788  0.00670433    -0.46400
C2753       C  0.67063622  0.08582631  0.00123813    -0.05700
C2754       C  0.64722644  0.09050178  0.00181447    -0.23000
H2755       H  0.60999454  0.11771370  0.00470039     0.18800
H2756       H  0.69199445  0.14109790  0.01210094     0.17600
H2757       H  0.66952630  0.17813313  0.00674364     0.13900
H2758       H  0.63285959  0.08119835  0.99659614     0.13700
H2759       H  0.60050681  0.15656025  0.00307228     0.31900
H2760       H  0.70182365  0.10234987  0.00561908     0.34600
C2761       C  0.79362726  0.01063293  0.74920258     0.20200
C2762       C  0.79376808  0.01884523  0.77620870    -0.39600
C2763       C  0.77607968  0.01276129  0.79432823     0.19200
C2764       C  0.75957144  0.99939906  0.78638641     0.21900
C2765       C  0.75942123  0.99118950  0.75935797    -0.40100
C2766       C  0.77703381  0.99736984  0.74116551     0.20700
N2767       N  0.80833747  0.01423393  0.72788608    -0.33400
C2768       C  0.80098045  0.00318790  0.70609194    -0.11000
C2769       C  0.78153572  0.99247959  0.71364601    -0.29800
N2770       N  0.74487657  0.99582086  0.80774823    -0.46400
C2771       C  0.75212080  0.00705469  0.82940284    -0.05700
C2772       C  0.77145230  0.01785425  0.82171259    -0.23000
H2773       H  0.80665092  0.02924864  0.78263473     0.18800
H2774       H  0.74653098  0.98079388  0.75292834     0.17600
H2775       H  0.77181878  0.98258562  0.70059139     0.13900
H2776       H  0.78110659  0.02786210  0.83465485     0.13700
H2777       H  0.82234368  0.02370278  0.72808773     0.31900
H2778       H  0.73099292  0.98622667  0.80768843     0.34600
C2779       C  0.81868763  0.01447021  0.06205504     0.20200
C2780       C  0.83833539  0.02469816  0.07072233    -0.39600
C2781       C  0.85457969  0.01398352  0.08621253     0.19200
C2782       C  0.85137484  0.99464193  0.09260646     0.21900
C2783       C  0.83198094  0.98438258  0.08359055    -0.40100
C2784       C  0.81587646  0.99502639  0.06805291     0.20700
N2785       N  0.80080876  0.02115625  0.04679937    -0.33400
C2786       C  0.78686238  0.00570410  0.04283274    -0.11000
C2787       C  0.79567695  0.98920167  0.05572640    -0.29800
N2788       N  0.86861108  0.98795238  0.10874036    -0.46400
C2789       C  0.88300010  0.00309466  0.11263353    -0.05700
C2790       C  0.87496625  0.01957154  0.09871276    -0.23000
H2791       H  0.84071545  0.03986069  0.06595475     0.18800
H2792       H  0.82954676  0.96923829  0.08845118     0.17600
H2793       H  0.78852515  0.97476521  0.05544407     0.13900
H2794       H  0.88248414  0.03387360  0.09878812     0.13700
H2795       H  0.79873724  0.03505425  0.03854755     0.31900
H2796       H  0.87017425  0.97405787  0.11717224     0.34600
C2797       C  0.73971552  0.89419409  0.91297935     0.20200
C2798       C  0.73925968  0.87483768  0.92184763    -0.39600
C2799       C  0.73804054  0.86098387  0.90032301     0.19200
C2800       C  0.73799751  0.86599977  0.87208289     0.21900
C2801       C  0.73814319  0.88535159  0.86321679    -0.40100
C2802       C  0.73870011  0.89921969  0.88476796     0.20700
N2803       N  0.73886585  0.91003686  0.92935191    -0.33400
C2804       C  0.73661127  0.92521282  0.91148465    -0.11000
C2805       C  0.73656696  0.91904958  0.88349337    -0.29800
N2806       N  0.73601512  0.85020533  0.85580201    -0.46400
C2807       C  0.73416853  0.83509748  0.87381785    -0.05700
C2808       C  0.73536566  0.84121559  0.90176463    -0.23000
H2809       H  0.73894893  0.87088844  0.94390493     0.18800
H2810       H  0.73698337  0.88932248  0.84120623     0.17600
H2811       H  0.73425772  0.92782576  0.86481952     0.13900
H2812       H  0.73403408  0.83241944  0.92054741     0.13700
H2813       H  0.73836461  0.91041702  0.95134185     0.31900
H2814       H  0.73496614  0.84979331  0.83383980     0.34600
C2815       C  0.65413627  0.64903092  0.50835542     0.20200
C2816       C  0.67370174  0.63701513  0.51017428    -0.39600
C2817       C  0.66954004  0.61704902  0.50888636     0.19200
C2818       C  0.64754441  0.60965651  0.50546574     0.21900
C2819       C  0.62792968  0.62165687  0.50416175    -0.40100
C2820       C  0.63205500  0.64161853  0.50599149     0.20700
N2821       N  0.65383151  0.66835375  0.50525950    -0.33400
C2822       C  0.63141809  0.67336292  0.50121327    -0.11000
C2823       C  0.61725186  0.65709499  0.50194619    -0.29800
N2824       N  0.64849582  0.59055127  0.50037134    -0.46400
C2825       C  0.67119994  0.58566856  0.50080494    -0.05700
C2826       C  0.68485144  0.60177017  0.50649858    -0.23000
H2827       H  0.69101752  0.64281926  0.51091605     0.18800
H2828       H  0.61084411  0.61592499  0.50038493     0.17600
H2829       H  0.59899754  0.65647920  0.49717594     0.13900
H2830       H  0.70350020  0.60256171  0.50584320     0.13700
H2831       H  0.66814924  0.67745965  0.50411896     0.31900
H2832       H  0.63467731  0.58161900  0.49497226     0.34600
C2833       C  0.74195656  0.76131325  0.31725866     0.20200
C2834       C  0.72175909  0.77115194  0.32508542    -0.39600
C2835       C  0.70461720  0.75979875  0.33764747     0.19200
C2836       C  0.70744848  0.74017878  0.34231841     0.21900
C2837       C  0.72747311  0.73026077  0.33401533    -0.40100
C2838       C  0.74452730  0.74159128  0.32120588     0.20700
N2839       N  0.76033742  0.76867008  0.30381847    -0.33400
C2840       C  0.77444936  0.75344474  0.29857598    -0.11000
C2841       C  0.76522975  0.73632915  0.30922706    -0.29800
N2842       N  0.68931094  0.73296877  0.35640976    -0.46400
C2843       C  0.67480041  0.74810784  0.36062516    -0.05700
C2844       C  0.68363241  0.76502934  0.34889927    -0.23000
H2845       H  0.71957638  0.78652348  0.32171186     0.18800
H2846       H  0.72962020  0.71487485  0.33729318     0.17600
H2847       H  0.77210702  0.72184042  0.30698517     0.13900
H2848       H  0.67641454  0.77945757  0.35015782     0.13700
H2849       H  0.76234332  0.78287017  0.29676321     0.31900
H2850       H  0.68739325  0.71883045  0.36375656     0.34600
C2851       C  0.66047752  0.74953137  0.61269524     0.20200
C2852       C  0.67962017  0.75095152  0.63068735    -0.39600
C2853       C  0.67484085  0.74922020  0.65954750     0.19200
C2854       C  0.65263884  0.74667435  0.66968727     0.21900
C2855       C  0.63359382  0.74485925  0.65168159    -0.40100
C2856       C  0.63842821  0.74623903  0.62284612     0.20700
N2857       N  0.66024314  0.75134746  0.58451258    -0.33400
C2858       C  0.63792752  0.74892337  0.57675560    -0.11000
C2859       C  0.62385202  0.74552681  0.60001660    -0.29800
N2860       N  0.65251480  0.74636358  0.69796764    -0.46400
C2861       C  0.67484757  0.74829975  0.70585125    -0.05700
C2862       C  0.68932697  0.75003262  0.68253758    -0.23000
H2863       H  0.69690009  0.75340286  0.62282733     0.18800
H2864       H  0.61625480  0.74273212  0.65955270     0.17600
H2865       H  0.60534252  0.74343594  0.60022422     0.13900
H2866       H  0.70784064  0.75208912  0.68249269     0.13700
H2867       H  0.67432414  0.75410593  0.57139053     0.31900
H2868       H  0.63818601  0.74478120  0.71110995     0.34600
C2869       C  0.63587054  0.11748108  0.27349203     0.20200
C2870       C  0.63059655  0.13726655  0.27448271    -0.39600
C2871       C  0.64956326  0.14979167  0.27498446     0.19200
C2872       C  0.67213827  0.14316694  0.27393924     0.21900
C2873       C  0.67742104  0.12335776  0.27337618    -0.40100
C2874       C  0.65844825  0.11081111  0.27348952     0.20700
N2875       N  0.62105377  0.10279944  0.27712460    -0.33400
C2876       C  0.63428066  0.08679138  0.28037408    -0.11000
C2877       C  0.65767392  0.09115438  0.27799431    -0.29800
N2878       N  0.68701357  0.15779622  0.27792064    -0.46400
C2879       C  0.67380809  0.17370213  0.28233102    -0.05700
C2880       C  0.65038622  0.16930982  0.28049638    -0.23000
H2881       H  0.61304647  0.14246746  0.27670194     0.18800
H2882       H  0.69500235  0.11809434  0.27475713     0.17600
H2883       H  0.67215527  0.08156734  0.28177367     0.13900
H2884       H  0.63594488  0.17879291  0.28497864     0.13700
H2885       H  0.60325481  0.10389031  0.28033189     0.31900
H2886       H  0.70489820  0.15669952  0.28030432     0.34600
C2887       C  0.70534352  0.02243287  0.44260354     0.20200
C2888       C  0.72594816  0.03185434  0.44955460    -0.39600
C2889       C  0.74275832  0.02037383  0.46269042     0.19200
C2890       C  0.73948817  0.00090026  0.46805743     0.21900
C2891       C  0.71875857  0.99151487  0.46134576    -0.40100
C2892       C  0.70179234  0.00308454  0.44857386     0.20700
N2893       N  0.68711021  0.02996923  0.42898344    -0.33400
C2894       C  0.67179608  0.01532630  0.42623902    -0.11000
C2895       C  0.68021726  0.99838056  0.43854513    -0.29800
N2896       N  0.75758607  0.99351198  0.48218286    -0.46400
C2897       C  0.77215014  0.00851452  0.48645763    -0.05700
C2898       C  0.76357479  0.02546138  0.47442345    -0.23000
H2899       H  0.72858348  0.04706693  0.44536294     0.18800
H2900       H  0.71596757  0.97638052  0.46596553     0.17600
H2901       H  0.67231533  0.98422357  0.43841292     0.13900
H2902       H  0.77082205  0.03983091  0.47584805     0.13700
H2903       H  0.68564554  0.04396467  0.42089440     0.31900
H2904       H  0.75902448  0.97957887  0.49050593     0.34600
C2905       C  0.63500921  0.01148578  0.16354883     0.20200
C2906       C  0.62879917  0.01141712  0.13494133    -0.39600
C2907       C  0.64718356  0.01163820  0.11567843     0.19200
C2908       C  0.67001124  0.01225958  0.12425528     0.21900
C2909       C  0.67623954  0.01186005  0.15287129    -0.40100
C2910       C  0.65784917  0.01128880  0.17214107     0.20700
N2911       N  0.62077010  0.01168609  0.18592688    -0.33400
C2912       C  0.63460966  0.01127522  0.20895483    -0.11000
C2913       C  0.65785948  0.01082972  0.20121794    -0.29800
N2914       N  0.68421371  0.01271312  0.10184245    -0.46400
C2915       C  0.67035812  0.01189964  0.07884035    -0.05700
C2916       C  0.64714614  0.01118339  0.08661976    -0.23000
H2917       H  0.61095849  0.01119795  0.12817729     0.18800
H2918       H  0.69408395  0.01198145  0.15963119     0.17600
H2919       H  0.67272912  0.01061604  0.21502947     0.13900
H2920       H  0.63228173  0.01040383  0.07285063     0.13700
H2921       H  0.60274115  0.01189082  0.18558763     0.31900
H2922       H  0.70224043  0.01297852  0.10214928     0.34600
C2923       C  0.57286572  0.89666149  0.37299353     0.20200
C2924       C  0.57177294  0.87743267  0.36346383    -0.39600
C2925       C  0.57372792  0.86311579  0.38436117     0.19200
C2926       C  0.57610574  0.86766286  0.41261049     0.21900
C2927       C  0.57763046  0.88684861  0.42205000    -0.40100
C2928       C  0.57609564  0.90112208  0.40114048     0.20700
N2929       N  0.57212370  0.91287075  0.35733149    -0.33400
C2930       C  0.57535156  0.92771341  0.37558685    -0.11000
C2931       C  0.57793631  0.92093970  0.40309289    -0.29800
N2932       N  0.57775833  0.85153269  0.42827052    -0.46400
C2933       C  0.57697309  0.83655352  0.40989302    -0.05700
C2934       C  0.57449428  0.84318900  0.38225301    -0.23000
H2935       H  0.56993175  0.87388361  0.34137429     0.18800
H2936       H  0.58020261  0.89039322  0.44403212     0.17600
H2937       H  0.58106485  0.92937670  0.42190598     0.13900
H2938       H  0.57363722  0.83460559  0.36322242     0.13700
H2939       H  0.57034691  0.91375480  0.33546919     0.31900
H2940       H  0.58014604  0.85075875  0.45005524     0.34600
C2941       C  0.51221100  0.01238908  0.53963986     0.20200
C2942       C  0.51174071  0.02165851  0.51336034    -0.39600
C2943       C  0.52874413  0.01577863  0.49411452     0.19200
C2944       C  0.54502098  0.00175229  0.50051212     0.21900
C2945       C  0.54555486  0.99251966  0.52684202    -0.40100
C2946       C  0.52850878  0.99838652  0.54608289     0.20700
N2947       N  0.49793123  0.01541529  0.56155350    -0.33400
C2948       C  0.50521568  0.00328348  0.58216536    -0.11000
C2949       C  0.52423249  0.99240341  0.57324519    -0.29800
N2950       N  0.55898333  0.99849542  0.47836468    -0.46400
C2951       C  0.55148701  0.01051489  0.45769816    -0.05700
C2952       C  0.53271400  0.02156879  0.46680888    -0.23000
H2953       H  0.49899565  0.03257746  0.50821751     0.18800
H2954       H  0.55822177  0.98152040  0.53192305     0.17600
H2955       H  0.53377859  0.98168447  0.58514903     0.13900
H2956       H  0.52304773  0.03220427  0.45489462     0.13700
H2957       H  0.48421975  0.02523846  0.56250439     0.31900
H2958       H  0.57256926  0.98855556  0.47726831     0.34600
C2959       C  0.56396376  0.99917583  0.82310182     0.20200
C2960       C  0.58287517  0.98837778  0.83286828    -0.39600
C2961       C  0.60164643  0.99919157  0.84267773     0.19200
C2962       C  0.60142499  0.01920431  0.84308665     0.21900
C2963       C  0.58261463  0.02999277  0.83319400    -0.40100
C2964       C  0.56399795  0.01919498  0.82305172     0.20700
N2965       N  0.54487529  0.99238739  0.81052574    -0.33400
C2966       C  0.53301862  0.00820569  0.80179989    -0.11000
C2967       C  0.54425026  0.02518348  0.80957600    -0.29800
N2968       N  0.62084586  0.02606423  0.85465329    -0.46400
C2969       C  0.63357682  0.01031833  0.86157499    -0.05700
C2970       C  0.62230018  0.99327214  0.85419526    -0.23000
H2971       H  0.58308159  0.97273441  0.83249278     0.18800
H2972       H  0.58262546  0.04563971  0.83300878     0.17600
H2973       H  0.53950984  0.03986945  0.80414378     0.13900
H2974       H  0.62776934  0.97857962  0.85844948     0.13700
H2975       H  0.54115380  0.97794894  0.80601322     0.31900
H2976       H  0.62477022  0.04053352  0.85867365     0.34600
C2977       C  0.31851975  0.99311780  0.56344031     0.20200
C2978       C  0.33477910  0.98099757  0.57646787    -0.39600
C2979       C  0.35285323  0.99037787  0.59045983     0.19200
C2980       C  0.35475550  0.01031363  0.59115850     0.21900
C2981       C  0.33831466  0.02245959  0.57837017    -0.40100
C2982       C  0.32004847  0.01306741  0.56460723     0.20700
N2983       N  0.29994328  0.98770083  0.54856109    -0.33400
C2984       C  0.28932126  0.00427433  0.54041621    -0.11000
C2985       C  0.30131065  0.02044776  0.55008377    -0.29800
N2986       N  0.37352285  0.01562312  0.60589222    -0.46400
C2987       C  0.38343217  0.99894625  0.61492506    -0.05700
C2988       C  0.37101249  0.98289863  0.60572882    -0.23000
H2989       H  0.33341183  0.96540254  0.57582312     0.18800
H2990       H  0.33961669  0.03805302  0.57915069     0.17600
H2991       H  0.29720592  0.03550835  0.54637026     0.13900
H2992       H  0.37461044  0.96781470  0.61000058     0.13700
H2993       H  0.29483104  0.97355533  0.54412319     0.31900
H2994       H  0.37887211  0.02971551  0.61024930     0.34600
C2995       C  0.51367077  0.25001074  0.75070092     0.20200
C2996       C  0.51266985  0.24171765  0.77766229    -0.39600
C2997       C  0.52951531  0.24799717  0.79684395     0.19200
C2998       C  0.54611804  0.26150104  0.78978968     0.21900
C2999       C  0.54709211  0.26982271  0.76284148    -0.40100
C3000       C  0.53024017  0.26354412  0.74365123     0.20700
N3001       N  0.49974228  0.24637934  0.72862383    -0.33400
C3002       C  0.50750263  0.25768588  0.70732218    -0.11000
C3003       C  0.52648566  0.26861320  0.71596478    -0.29800
N3004       N  0.56014984  0.26501647  0.81181319    -0.46400
C3005       C  0.55239135  0.25366661  0.83306511    -0.05700
C3006       C  0.53331052  0.24285707  0.82447434    -0.23000
H3007       H  0.49975328  0.23113099  0.78328734     0.18800
H3008       H  0.56003629  0.28038257  0.75720686     0.17600
H3009       H  0.53630616  0.27882875  0.70357876     0.13900
H3010       H  0.52348356  0.23263787  0.83684747     0.13700
H3011       H  0.48589250  0.23675826  0.72805561     0.31900
H3012       H  0.57406395  0.27457295  0.81237320     0.34600
C3013       C  0.56528895  0.25960864  0.46601964     0.20200
C3014       C  0.58508997  0.26968636  0.45762875    -0.39600
C3015       C  0.60261572  0.25840098  0.44555575     0.19200
C3016       C  0.60039161  0.23866471  0.44163539     0.21900
C3017       C  0.58071566  0.22855476  0.45030121    -0.40100
C3018       C  0.56339100  0.23977312  0.46288333     0.20700
N3019       N  0.54705414  0.26675124  0.48006021    -0.33400
C3020       C  0.53383909  0.25127594  0.48661453    -0.11000
C3021       C  0.54334363  0.23422155  0.47605370    -0.29800
N3022       N  0.61904310  0.23139466  0.42859365    -0.46400
C3023       C  0.63332918  0.24659082  0.42437891    -0.05700
C3024       C  0.62377582  0.26365567  0.43491765    -0.23000
H3025       H  0.58687005  0.28511401  0.46069657     0.18800
H3026       H  0.57919651  0.21305150  0.44790811     0.17600
H3027       H  0.53722977  0.21961985  0.47928326     0.13900
H3028       H  0.63078729  0.27810825  0.43352015     0.13700
H3029       H  0.54473416  0.28099602  0.48683514     0.31900
H3030       H  0.62156038  0.21710438  0.42214128     0.34600
C3031       C  0.48666141  0.14961527  0.65221716     0.20200
C3032       C  0.48600913  0.13649558  0.67485715    -0.39600
C3033       C  0.48600782  0.11679727  0.66751463     0.19200
C3034       C  0.48597421  0.11068992  0.63974222     0.21900
C3035       C  0.48699655  0.12378240  0.61718013    -0.40100
C3036       C  0.48763848  0.14343228  0.62451593     0.20700
N3037       N  0.48577187  0.16905667  0.65343394    -0.33400
C3038       C  0.48663159  0.17529836  0.62633315    -0.11000
C3039       C  0.48799136  0.15971513  0.60773373    -0.29800
N3040       N  0.48454081  0.09131537  0.63823550    -0.46400
C3041       C  0.48420107  0.08495768  0.66522734    -0.05700
C3042       C  0.48518923  0.10041579  0.68412900    -0.23000
H3043       H  0.48530357  0.14126703  0.69655519     0.18800
H3044       H  0.48702753  0.11901908  0.59546560     0.17600
H3045       H  0.48797416  0.16022559  0.58494637     0.13900
H3046       H  0.48451923  0.09976256  0.70689784     0.13700
H3047       H  0.48421462  0.17755336  0.67152959     0.31900
H3048       H  0.48374459  0.08291456  0.61997813     0.34600
C3049       C  0.27864466  0.00015780  0.24128705     0.20200
C3050       C  0.26087107  0.99252126  0.25795493    -0.39600
C3051       C  0.25994387  0.99930673  0.28572471     0.19200
C3052       C  0.27565356  0.01259488  0.29597094     0.21900
C3053       C  0.29351977  0.02014008  0.27935139    -0.40100
C3054       C  0.29436336  0.01343869  0.25153758     0.20700
N3055       N  0.28289484  0.99626441  0.21415875    -0.33400
C3056       C  0.30143324  0.00711260  0.20695938    -0.11000
C3057       C  0.30914748  0.01805672  0.22975014    -0.29800
N3058       N  0.27089912  0.01700174  0.32281354    -0.46400
C3059       C  0.25201275  0.00651352  0.32983556    -0.05700
C3060       C  0.24466291  0.99520259  0.30723364    -0.23000
H3061       H  0.24854973  0.98221239  0.24979230     0.18800
H3062       H  0.30569796  0.03060184  0.28742118     0.17600
H3063       H  0.32351588  0.02801051  0.23028887     0.13900
H3064       H  0.23011857  0.98543410  0.30657713     0.13700
H3065       H  0.27365488  0.98679056  0.20128551     0.31900
H3066       H  0.27997024  0.02665681  0.33557652     0.34600
C3067       C  0.45360642  0.99550086  0.19423913     0.20200
C3068       C  0.47132865  0.98461748  0.20659116    -0.39600
C3069       C  0.48918855  0.99529332  0.21879983     0.19200
C3070       C  0.48963341  0.01530289  0.21835561     0.21900
C3071       C  0.47169199  0.02622672  0.20627115    -0.40100
C3072       C  0.45356441  0.01551868  0.19443186     0.20700
N3073       N  0.43503827  0.98869922  0.18068014    -0.33400
C3074       C  0.42289689  0.00445306  0.17237589    -0.11000
C3075       C  0.43374414  0.02149083  0.18078325    -0.29800
N3076       N  0.50822232  0.02193922  0.23226108    -0.46400
C3077       C  0.51927293  0.00601069  0.24214452    -0.05700
C3078       C  0.50800218  0.98915120  0.23400531    -0.23000
H3079       H  0.47110531  0.96897346  0.20692009     0.18800
H3080       H  0.47174068  0.04187161  0.20631476     0.17600
H3081       H  0.42840283  0.03619078  0.17636920     0.13900
H3082       H  0.51246256  0.97441700  0.23950255     0.13700
H3083       H  0.43106192  0.97421377  0.17686010     0.31900
H3084       H  0.51239072  0.03637147  0.23617462     0.34600
C3085       C  0.24330918  0.00064335  0.96309354     0.20200
C3086       C  0.22412696  0.99034827  0.95324780    -0.39600
C3087       C  0.20695789  0.00148401  0.94017116     0.19200
C3088       C  0.20897041  0.02128623  0.93674173     0.21900
C3089       C  0.22801962  0.03159725  0.94677485    -0.40100
C3090       C  0.24497268  0.02052076  0.96027656     0.20700
N3091       N  0.26108510  0.99365356  0.97814781    -0.33400
C3092       C  0.27378720  0.00925803  0.98548487    -0.11000
C3093       C  0.26438013  0.02625277  0.97459249    -0.29800
N3094       N  0.19047586  0.02851349  0.92340389    -0.46400
C3095       C  0.17643708  0.01325232  0.91865282    -0.05700
C3096       C  0.18608174  0.99612373  0.92880646    -0.23000
H3097       H  0.22246182  0.97489494  0.95612392     0.18800
H3098       H  0.22927457  0.04714799  0.94481621     0.17600
H3099       H  0.27018606  0.04091152  0.97813845     0.13900
H3100       H  0.17909375  0.98166858  0.92728189     0.13700
H3101       H  0.26347367  0.97939213  0.98480650     0.31900
H3102       H  0.18767727  0.04290848  0.91764290     0.34600
C3103       C  0.39910556  0.00073134  0.86604824     0.20200
C3104       C  0.37967610  0.00187271  0.88363488    -0.39600
C3105       C  0.38413452  0.00060507  0.91262670     0.19200
C3106       C  0.40630033  0.99876345  0.92326347     0.21900
C3107       C  0.42566504  0.99722965  0.90566011    -0.40100
C3108       C  0.42116455  0.99812392  0.87666536     0.20700
N3109       N  0.39954265  0.00185311  0.83780075    -0.33400
C3110       C  0.42197394  0.99957543  0.83037898    -0.11000
C3111       C  0.43598578  0.99711712  0.85401488    -0.29800
N3112       N  0.40603937  0.99871163  0.95155600    -0.46400
C3113       C  0.38352728  0.00012296  0.95895254    -0.05700
C3114       C  0.36929469  0.00122352  0.93530187    -0.23000
H3115       H  0.36239027  0.00368823  0.87536294     0.18800
H3116       H  0.44296720  0.99555038  0.91393660     0.17600
H3117       H  0.45453759  0.99523103  0.85454243     0.13900
H3118       H  0.35069311  0.00273010  0.93482713     0.13700
H3119       H  0.38544910  0.00385360  0.82436597     0.31900
H3120       H  0.42024333  0.99760809  0.96503020     0.34600
C3121       C  0.48940274  0.24978664  0.06888994     0.20200
C3122       C  0.47098195  0.23916906  0.08012953    -0.39600
C3123       C  0.45300969  0.25014559  0.09190151     0.19200
C3124       C  0.45350331  0.27014718  0.09270987     0.21900
C3125       C  0.47176814  0.28076860  0.08119683    -0.40100
C3126       C  0.48958485  0.26980224  0.06916852     0.20700
N3127       N  0.50815470  0.24282308  0.05559867    -0.33400
C3128       C  0.52007665  0.25855919  0.04693655    -0.11000
C3129       C  0.50909122  0.27562122  0.05512514    -0.29800
N3130       N  0.43491577  0.27713710  0.10621281    -0.46400
C3131       C  0.42240690  0.26148159  0.11392341    -0.05700
C3132       C  0.43302567  0.24438759  0.10514601    -0.23000
H3133       H  0.47064113  0.22353105  0.07968873     0.18800
H3134       H  0.47205333  0.29641256  0.08149939     0.17600
H3135       H  0.51425832  0.29030302  0.05047402     0.13900
H3136       H  0.42744282  0.22972624  0.10913288     0.13700
H3137       H  0.51198272  0.22833611  0.05142512     0.31900
H3138       H  0.43126597  0.29163632  0.11054303     0.34600
C3139       C  0.38833022  0.26336322  0.37354076     0.20200
C3140       C  0.38193541  0.26236674  0.40204245    -0.39600
C3141       C  0.40018921  0.26177851  0.42148873     0.19200
C3142       C  0.42307172  0.26249696  0.41318298     0.21900
C3143       C  0.42948437  0.26302153  0.38462430    -0.40100
C3144       C  0.41121254  0.26327547  0.36514636     0.20700
N3145       N  0.37422198  0.26410064  0.35106995    -0.33400
C3146       C  0.38815972  0.26407358  0.32814286    -0.11000
C3147       C  0.41137634  0.26346776  0.33604434    -0.29800
N3148       N  0.43711069  0.26248664  0.43577363    -0.46400
C3149       C  0.42309822  0.26137471  0.45860877    -0.05700
C3150       C  0.39994556  0.26076844  0.45053479    -0.23000
H3151       H  0.36404766  0.26208956  0.40859543     0.18800
H3152       H  0.44737197  0.26323237  0.37806078     0.17600
H3153       H  0.42630695  0.26323167  0.32234660     0.13900
H3154       H  0.38497231  0.26006292  0.46411899     0.13700
H3155       H  0.35618999  0.26409169  0.35126620     0.31900
H3156       H  0.45513163  0.26297277  0.43568797     0.34600
C3157       C  0.31636515  0.11195027  0.15057646     0.20200
C3158       C  0.31807627  0.12465904  0.17348904    -0.39600
C3159       C  0.31763697  0.14439089  0.16682272     0.19200
C3160       C  0.31605578  0.15098055  0.13934743     0.21900
C3161       C  0.31397750  0.13825083  0.11641575    -0.40100
C3162       C  0.31403270  0.11847534  0.12314442     0.20700
N3163       N  0.31806474  0.09259947  0.15125136    -0.33400
C3164       C  0.31656023  0.08667459  0.12411655    -0.11000
C3165       C  0.31381203  0.10238490  0.10593574    -0.29800
N3166       N  0.31797544  0.17034277  0.13848157    -0.46400
C3167       C  0.32047780  0.17608610  0.16562358    -0.05700
C3168       C  0.32012754  0.16033338  0.18392738    -0.23000
H3169       H  0.32023929  0.11954660  0.19487925     0.18800
H3170       H  0.31304796  0.14334765  0.09488742     0.17600
H3171       H  0.31329204  0.10213003  0.08314436     0.13900
H3172       H  0.32256947  0.16047253  0.20653432     0.13700
H3173       H  0.32090037  0.08398195  0.16899989     0.31900
H3174       H  0.31801041  0.17908739  0.12054156     0.34600
C3175       C  0.13533638  0.11932541  0.77420261     0.20200
C3176       C  0.12973446  0.13907080  0.77474435    -0.39600
C3177       C  0.14848476  0.15185586  0.77452837     0.19200
C3178       C  0.17115641  0.14550461  0.77329712     0.21900
C3179       C  0.17677606  0.12573464  0.77327529    -0.40100
C3180       C  0.15801976  0.11293785  0.77404015     0.20700
N3181       N  0.12076829  0.10444948  0.77788901    -0.33400
C3182       C  0.13425311  0.08856041  0.78091941    -0.11000
C3183       C  0.15758141  0.09324996  0.77851315    -0.29800
N3184       N  0.18581347  0.16040905  0.77640503    -0.46400
C3185       C  0.17240338  0.17625682  0.78047548    -0.05700
C3186       C  0.14903295  0.17149525  0.77925365    -0.23000
H3187       H  0.11210956  0.14408727  0.77695876     0.18800
H3188       H  0.19446634  0.12070340  0.77437255     0.17600
H3189       H  0.17224824  0.08379291  0.78190447     0.13900
H3190       H  0.13446598  0.18085209  0.78369249     0.13700
H3191       H  0.10293616  0.10530477  0.78094941     0.31900
H3192       H  0.20374002  0.15956249  0.77850423     0.34600
C3193       C  0.27514530  0.24868040  0.99297867     0.20200
C3194       C  0.29147417  0.24025061  0.01111090    -0.39600
C3195       C  0.29300275  0.24846363  0.03803537     0.19200
C3196       C  0.27925295  0.26386822  0.04621031     0.21900
C3197       C  0.26302017  0.27238860  0.02799286    -0.40100
C3198       C  0.26149097  0.26417213  0.00104023     0.20700
N3199       N  0.27016082  0.24328316  0.96654608    -0.33400
C3200       C  0.25317657  0.25536147  0.95758699    -0.11000
C3201       C  0.24733678  0.26868458  0.97851148    -0.29800
N3202       N  0.28373631  0.26881176  0.07299793    -0.46400
C3203       C  0.30053707  0.25654982  0.08197095    -0.05700
C3204       C  0.30681380  0.24364344  0.06069829    -0.23000
H3205       H  0.30208770  0.22810217  0.00476937     0.18800
H3206       H  0.25225497  0.28442052  0.03441880     0.17600
H3207       H  0.23442756  0.28000827  0.97745221     0.13900
H3208       H  0.31959426  0.23221621  0.06174661     0.13700
H3209       H  0.27780049  0.23195305  0.95532804     0.31900
H3210       H  0.27583937  0.27989229  0.08447284     0.34600
C3211       C  0.09821409  0.24115568  0.93887605     0.20200
C3212       C  0.07921295  0.23061804  0.94879641    -0.39600
C3213       C  0.06151706  0.24157914  0.96122844     0.19200
C3214       C  0.06243058  0.26154014  0.96301306     0.21900
C3215       C  0.08155583  0.27203581  0.95336092    -0.40100
C3216       C  0.09947463  0.26104722  0.94149847     0.20700
N3217       N  0.11714660  0.23417530  0.92602777    -0.33400
C3218       C  0.13068886  0.24970826  0.92068406    -0.11000
C3219       C  0.12031830  0.26671717  0.93024726    -0.29800
N3220       N  0.04414285  0.26847101  0.97725380    -0.46400
C3221       C  0.03184573  0.25279789  0.98533712    -0.05700
C3222       C  0.04204359  0.23576499  0.97552680    -0.23000
H3223       H  0.07850458  0.21500873  0.94751850     0.18800
H3224       H  0.08261404  0.28758477  0.95547415     0.17600
H3225       H  0.12666996  0.28133439  0.92803187     0.13900
H3226       H  0.03678676  0.22107348  0.97995018     0.13700
H3227       H  0.12041311  0.21978265  0.92063407     0.31900
H3228       H  0.04126427  0.28282193  0.98317722     0.34600
C3229       C  0.32050985  0.26710947  0.72450081     0.20200
C3230       C  0.33711214  0.27923277  0.71246076    -0.39600
C3231       C  0.35579543  0.26986789  0.69964858     0.19200
C3232       C  0.35805746  0.24993772  0.69935212     0.21900
C3233       C  0.34139379  0.23777262  0.71143570    -0.40100
C3234       C  0.32240090  0.24715864  0.72377957     0.20700
N3235       N  0.30125801  0.27254641  0.73801952    -0.33400
C3236       C  0.29064120  0.25598354  0.74585131    -0.11000
C3237       C  0.30319848  0.23978821  0.73719152    -0.29800
N3238       N  0.37696161  0.24465219  0.68482958    -0.46400
C3239       C  0.38646156  0.26134137  0.67539805    -0.05700
C3240       C  0.37383485  0.27736282  0.68438077    -0.23000
H3241       H  0.33539078  0.29481753  0.71262158     0.18800
H3242       H  0.34291140  0.22217961  0.71084897     0.17600
H3243       H  0.29933602  0.22474970  0.74126927     0.13900
H3244       H  0.37699331  0.29241543  0.67955453     0.13700
H3245       H  0.29588237  0.28669577  0.74216349     0.31900
H3246       H  0.38243668  0.23056225  0.68047009     0.34600
C3247       C  0.16804764  0.61812874  0.00999052     0.20200
C3248       C  0.17371315  0.63783806  0.01017881    -0.39600
C3249       C  0.15503139  0.65080658  0.00949076     0.19200
C3250       C  0.13229770  0.64470059  0.00913563     0.21900
C3251       C  0.12661276  0.62495691  0.00852418    -0.40100
C3252       C  0.14535332  0.61196509  0.00873105     0.20700
N3253       N  0.18271620  0.60313529  0.00686977    -0.33400
C3254       C  0.16933435  0.58735001  0.00285655    -0.11000
C3255       C  0.14593763  0.59228930  0.00402016    -0.29800
N3256       N  0.11788019  0.65983962  0.00548390    -0.46400
C3257       C  0.13159516  0.67558973  0.00283080    -0.05700
C3258       C  0.15481967  0.67050203  0.00532180    -0.23000
H3259       H  0.19142221  0.64272524  0.00918310     0.18800
H3260       H  0.10896695  0.62009079  0.00630418     0.17600
H3261       H  0.13137550  0.58300299  0.99960601     0.13900
H3262       H  0.16962146  0.67976096  0.00217582     0.13700
H3263       H  0.20064255  0.60388252  0.00479352     0.31900
H3264       H  0.10004816  0.65926378  0.00232881     0.34600
C3265       C  0.10026380  0.50189862  0.83954765     0.20200
C3266       C  0.08383585  0.48930133  0.82800860    -0.39600
C3267       C  0.06351992  0.49806427  0.81814429     0.19200
C3268       C  0.06008578  0.51786643  0.81934705     0.21900
C3269       C  0.07639373  0.53041126  0.83107128    -0.40100
C3270       C  0.09651898  0.52163854  0.84126352     0.20700
N3271       N  0.12054614  0.49714162  0.85138345    -0.33400
C3272       C  0.12951760  0.51393111  0.86116397    -0.11000
C3273       C  0.11508898  0.52954463  0.85509536    -0.29800
N3274       N  0.04026565  0.52280951  0.80667922    -0.46400
C3275       C  0.03092297  0.50606961  0.79738780    -0.05700
C3276       C  0.04475153  0.49024577  0.80444379    -0.23000
H3277       H  0.08668919  0.47385460  0.82674377     0.18800
H3278       H  0.07362037  0.54587525  0.83212899     0.17600
H3279       H  0.11739867  0.54451038  0.86109084     0.13900
H3280       H  0.04235386  0.47531283  0.79831941     0.13700
H3281       H  0.12725579  0.48322155  0.85402532     0.31900
H3282       H  0.03406592  0.53681424  0.80325135     0.34600
C3283       C  0.21668320  0.36480807  0.88348896     0.20200
C3284       C  0.20285909  0.38090056  0.88967751    -0.39600
C3285       C  0.21468742  0.39760800  0.89776445     0.19200
C3286       C  0.23849450  0.39821493  0.90012918     0.21900
C3287       C  0.25241447  0.38214335  0.89339102    -0.40100
C3288       C  0.24055110  0.36544582  0.88471263     0.20700
N3289       N  0.20943465  0.34716688  0.87594295    -0.33400
C3290       C  0.22873699  0.33646211  0.87179231    -0.11000
C3291       C  0.24857928  0.34736488  0.87682383    -0.29800
N3292       N  0.24538790  0.41583935  0.90874231    -0.46400
C3293       C  0.22580121  0.42651902  0.91120482    -0.05700
C3294       C  0.20636491  0.41565115  0.90448137    -0.23000
H3295       H  0.18421846  0.38044217  0.88827922     0.18800
H3296       H  0.27105097  0.38260527  0.89479146     0.17600
H3297       H  0.26634817  0.34253922  0.87577462     0.13900
H3298       H  0.18852507  0.42036446  0.90451145     0.13700
H3299       H  0.19234100  0.34263570  0.87376034     0.31900
H3300       H  0.26232215  0.42047353  0.91198503     0.34600
C3301       C  0.15354274  0.11302695  0.50970569     0.20200
C3302       C  0.13394436  0.12492564  0.51262754    -0.39600
C3303       C  0.13791406  0.14494343  0.51164414     0.19200
C3304       C  0.15975022  0.15247253  0.50748489     0.21900
C3305       C  0.17940680  0.14058623  0.50510675    -0.40100
C3306       C  0.17548990  0.12058078  0.50664306     0.20700
N3307       N  0.15395050  0.09371011  0.50645246    -0.33400
C3308       C  0.17632223  0.08882989  0.50175781    -0.11000
C3309       C  0.19033977  0.10520038  0.50200371    -0.29800
N3310       N  0.15854022  0.17163104  0.50291787    -0.46400
C3311       C  0.13583889  0.17645259  0.50439315    -0.05700
C3312       C  0.12244822  0.16020975  0.51028799    -0.23000
H3313       H  0.11670971  0.11901410  0.51402931     0.18800
H3314       H  0.19634625  0.14645554  0.50084991     0.17600
H3315       H  0.20850339  0.10592884  0.49679087     0.13900
H3316       H  0.10379747  0.15934528  0.51043667     0.13700
H3317       H  0.13970603  0.08449988  0.50586364     0.31900
H3318       H  0.17216505  0.18066642  0.49717447     0.34600
C3319       C  0.01618990  0.25022074  0.24873292     0.20200
C3320       C  0.01699138  0.24079891  0.27482957    -0.39600
C3321       C  0.03340066  0.24780436  0.29394396     0.19200
C3322       C  0.04798823  0.26301731  0.28766227     0.21900
C3323       C  0.04731922  0.27236136  0.26141943    -0.40100
C3324       C  0.03085642  0.26535135  0.24227440     0.20700
N3325       N  0.00187564  0.24646692  0.22713619    -0.33400
C3326       C  0.00752291  0.25926509  0.20670558    -0.11000
C3327       C  0.02555018  0.27125353  0.21535836    -0.29800
N3328       N  0.06154868  0.26723875  0.30986478    -0.46400
C3329       C  0.05546620  0.25458827  0.33037073    -0.05700
C3330       C  0.03803338  0.24223778  0.32112368    -0.23000
H3331       H  0.00550507  0.22901410  0.28000020     0.18800
H3332       H  0.05859662  0.28431309  0.25637658     0.17600
H3333       H  0.03369173  0.28272770  0.20350354     0.13900
H3334       H  0.02956979  0.23090469  0.33292641     0.13700
H3335       H  0.98918236  0.23579327  0.22628706     0.31900
H3336       H  0.07385258  0.27820701  0.31113813     0.34600
C3337       C  0.98811239  0.24793017  0.56626090     0.20200
C3338       C  0.96989314  0.23722556  0.57788691    -0.39600
C3339       C  0.95297761  0.24804965  0.59213194     0.19200
C3340       C  0.95425963  0.26795334  0.59477858     0.21900
C3341       C  0.97221203  0.27865408  0.58277544    -0.40100
C3342       C  0.98894989  0.26788121  0.56836746     0.20700
N3343       N  0.00626206  0.24119208  0.55148359    -0.33400
C3344       C  0.01840867  0.25706585  0.54383593    -0.11000
C3345       C  0.00812622  0.27392471  0.55393348    -0.29800
N3346       N  0.93664700  0.27478471  0.61025576    -0.46400
C3347       C  0.92388892  0.25915456  0.61735483    -0.05700
C3348       C  0.93343258  0.24221720  0.60628520    -0.23000
H3349       H  0.96899436  0.22165025  0.57607904     0.18800
H3350       H  0.97311816  0.29423094  0.58458017     0.17600
H3351       H  0.01375915  0.28866371  0.55069884     0.13900
H3352       H  0.92730628  0.22757327  0.60901830     0.13700
H3353       H  0.00970048  0.22683404  0.54605921     0.31900
H3354       H  0.93365685  0.28916738  0.61593363     0.34600
C3355       C  0.24435297  0.26309530  0.32442749     0.20200
C3356       C  0.22493037  0.27373538  0.33319959    -0.39600
C3357       C  0.20730310  0.26299391  0.34602497     0.19200
C3358       C  0.20913017  0.24324630  0.35019311     0.21900
C3359       C  0.22843257  0.23260831  0.34128804    -0.40100
C3360       C  0.24583322  0.24327012  0.32801995     0.20700
N3361       N  0.26260892  0.26963678  0.30983261    -0.33400
C3362       C  0.27549487  0.25380987  0.30353403    -0.11000
C3363       C  0.26562833  0.23711028  0.31464968    -0.29800
N3364       N  0.19029868  0.23641525  0.36320229    -0.46400
C3365       C  0.17618813  0.25184808  0.36714284    -0.05700
C3366       C  0.18617367  0.26872024  0.35664940    -0.23000
H3367       H  0.22345135  0.28915703  0.32976388     0.18800
H3368       H  0.22957127  0.21709218  0.34391511     0.17600
H3369       H  0.27143127  0.22234423  0.31186105     0.13900
H3370       H  0.17930198  0.28327416  0.35764252     0.13700
H3371       H  0.26523629  0.28375992  0.30276284     0.31900
H3372       H  0.18740969  0.22215420  0.36949053     0.34600
C3373       C  0.15246808  0.25038307  0.67204633     0.20200
C3374       C  0.13292001  0.25127962  0.65470599    -0.39600
C3375       C  0.13721904  0.25044618  0.62571130     0.19200
C3376       C  0.15934327  0.24928946  0.61477891     0.21900
C3377       C  0.17889867  0.24799270  0.63215908    -0.40100
C3378       C  0.17454887  0.24839336  0.66122291     0.20700
N3379       N  0.15299417  0.25139179  0.70025568    -0.33400
C3380       C  0.17551618  0.24968851  0.70748545    -0.11000
C3381       C  0.18951516  0.24762746  0.68377339    -0.29800
N3382       N  0.15878574  0.24958790  0.58648732    -0.46400
C3383       C  0.13612166  0.25048290  0.57949653    -0.05700
C3384       C  0.12213994  0.25095596  0.60333216    -0.23000
H3385       H  0.11564318  0.25263125  0.66316779     0.18800
H3386       H  0.19619772  0.24687154  0.62369528     0.17600
H3387       H  0.20813363  0.24633481  0.68313167     0.13900
H3388       H  0.10350536  0.25200278  0.60412400     0.13700
H3389       H  0.13891408  0.25310439  0.71378277     0.31900
H3390       H  0.17287663  0.24904355  0.57278069     0.34600
C3391       C  0.17101129  0.64422173  0.27501911     0.20200
C3392       C  0.17618141  0.62439395  0.27371757    -0.39600
C3393       C  0.15715142  0.61187017  0.27371141     0.19200
C3394       C  0.13460520  0.61856019  0.27447796     0.21900
C3395       C  0.12944452  0.63837795  0.27632431    -0.40100
C3396       C  0.14849365  0.65088758  0.27676502     0.20700
N3397       N  0.18604874  0.65884189  0.27836858    -0.33400
C3398       C  0.17304597  0.67485325  0.28295646    -0.11000
C3399       C  0.14954759  0.67046089  0.28205878    -0.29800
N3400       N  0.11976233  0.60376142  0.27736605    -0.46400
C3401       C  0.13295506  0.58759626  0.27927667    -0.05700
C3402       C  0.15634418  0.59207873  0.27687673    -0.23000
H3403       H  0.19376448  0.61906690  0.27428439     0.18800
H3404       H  0.11193366  0.64360489  0.27884111     0.17600
H3405       H  0.13523073  0.68005521  0.28663127     0.13900
H3406       H  0.17085854  0.58237161  0.27969121     0.13700
H3407       H  0.20399376  0.65772526  0.27988364     0.31900
H3408       H  0.10198953  0.60478000  0.28081155     0.34600
C3409       C  0.01471782  0.51413357  0.53767863     0.20200
C3410       C  0.01609445  0.52415428  0.51203245    -0.39600
C3411       C  0.03269252  0.51729339  0.49289992     0.19200
C3412       C  0.04688400  0.50166413  0.49878677     0.21900
C3413       C  0.04559483  0.49171073  0.52449873    -0.40100
C3414       C  0.02899726  0.49857326  0.54363284     0.20700
N3415       N  0.00020839  0.51763525  0.55925480    -0.33400
C3416       C  0.00536838  0.50423524  0.57914855    -0.11000
C3417       C  0.02325472  0.49212651  0.57012948    -0.29800
N3418       N  0.06062885  0.49758727  0.47668271    -0.46400
C3419       C  0.05505678  0.51068160  0.45652102    -0.05700
C3420       C  0.03780125  0.52326610  0.46597981    -0.23000
H3421       H  0.00489258  0.53626029  0.50718943     0.18800
H3422       H  0.05653988  0.47940844  0.52916088     0.17600
H3423       H  0.03104461  0.48020711  0.58149456     0.13900
H3424       H  0.02963658  0.53490896  0.45439694     0.13700
H3425       H  0.98773040  0.52853948  0.56045989     0.31900
H3426       H  0.07260221  0.48631224  0.47515426     0.34600
C3427       C  0.95547477  0.49200151  0.19050303     0.20200
C3428       C  0.97387576  0.48155080  0.20221053    -0.39600
C3429       C  0.99082796  0.49262887  0.21559171     0.19200
C3430       C  0.98970811  0.51260808  0.21697964     0.21900
C3431       C  0.97109786  0.52304746  0.20565026    -0.40100
C3432       C  0.95400308  0.51194129  0.19247156     0.20700
N3433       N  0.93758239  0.48489252  0.17588293    -0.33400
C3434       C  0.92452131  0.50039914  0.16866020    -0.11000
C3435       C  0.93408314  0.51751815  0.17883424    -0.29800
N3436       N  0.00779645  0.51968133  0.23133399    -0.46400
C3437       C  0.02019369  0.50403337  0.23955798    -0.05700
C3438       C  0.01021339  0.48692719  0.23007781    -0.23000
H3439       H  0.97489301  0.46594476  0.20104318     0.18800
H3440       H  0.96999915  0.53864112  0.20701776     0.17600
H3441       H  0.92779685  0.53211134  0.17567884     0.13900
H3442       H  0.01594486  0.47227712  0.23413527     0.13700
H3443       H  0.93464196  0.47042663  0.17073092     0.31900
H3444       H  0.01085485  0.53412724  0.23650036     0.34600
C3445       C  0.14790980  0.51114381  0.11231369     0.20200
C3446       C  0.12864985  0.51310092  0.13002796    -0.39600
C3447       C  0.13332143  0.51276182  0.15901814     0.19200
C3448       C  0.15541128  0.51012926  0.16952635     0.21900
C3449       C  0.17470745  0.50844102  0.15182465    -0.40100
C3450       C  0.17010754  0.50930835  0.12284516     0.20700
N3451       N  0.14811977  0.51134054  0.08401419    -0.33400
C3452       C  0.17064513  0.51013379  0.07653175    -0.11000
C3453       C  0.18490332  0.50884808  0.10012458    -0.29800
N3454       N  0.15516882  0.50967548  0.19780864    -0.46400
C3455       C  0.13283685  0.51239279  0.20536021    -0.05700
C3456       C  0.11868985  0.51450638  0.18177778    -0.23000
H3457       H  0.11133681  0.51491193  0.12184256     0.18800
H3458       H  0.19203633  0.50675160  0.16001613     0.17600
H3459       H  0.20353127  0.50761423  0.10054098     0.13900
H3460       H  0.10015479  0.51651483  0.18136968     0.13700
H3461       H  0.13389957  0.51267619  0.07060708     0.31900
H3462       H  0.16931323  0.50771565  0.21117749     0.34600
C3463       C  0.06992993  0.40173580  0.39971952     0.20200
C3464       C  0.06802035  0.38871361  0.42230402    -0.39600
C3465       C  0.06875975  0.36902111  0.41514116     0.19200
C3466       C  0.07154604  0.36279657  0.38762613     0.21900
C3467       C  0.07289122  0.37579573  0.36499349    -0.40100
C3468       C  0.07180669  0.39546658  0.37211222     0.20700
N3469       N  0.07120784  0.42114089  0.40107428    -0.33400
C3470       C  0.07351287  0.42725279  0.37408838    -0.11000
C3471       C  0.07373462  0.41167392  0.35541990    -0.29800
N3472       N  0.07388190  0.34346846  0.38662850    -0.46400
C3473       C  0.07229446  0.33730492  0.41365714    -0.05700
C3474       C  0.06880947  0.35279499  0.43202725    -0.23000
H3475       H  0.06672757  0.39355053  0.44392918     0.18800
H3476       H  0.07526651  0.37096226  0.34350078     0.17600
H3477       H  0.07604421  0.41213334  0.33280363     0.13900
H3478       H  0.06778177  0.35231875  0.45478341     0.13700
H3479       H  0.07078404  0.42968866  0.41920561     0.31900
H3480       H  0.07693228  0.33502639  0.36875793     0.34600
C3481       C  0.42526211  0.87058254  0.03094664     0.20200
C3482       C  0.42971680  0.89041767  0.03344015    -0.39600
C3483       C  0.41033793  0.90259815  0.03228098     0.19200
C3484       C  0.38815236  0.89563980  0.02858588     0.21900
C3485       C  0.38364571  0.87576127  0.02665203    -0.40100
C3486       C  0.40302268  0.86355249  0.02810348     0.20700
N3487       N  0.44040839  0.85602128  0.03461304    -0.33400
C3488       C  0.42767828  0.83964960  0.03464525    -0.11000
C3489       C  0.40431912  0.84375399  0.03064087    -0.29800
N3490       N  0.37256192  0.91003279  0.03084116    -0.46400
C3491       C  0.38491515  0.92613649  0.03666538    -0.05700
C3492       C  0.40849881  0.92207265  0.03762028    -0.23000
H3493       H  0.44688219  0.89589674  0.03747718     0.18800
H3494       H  0.36624123  0.87016679  0.02558160     0.17600
H3495       H  0.39004092  0.83373239  0.03181748     0.13900
H3496       H  0.42227217  0.93179496  0.04356320     0.13700
H3497       H  0.45793685  0.85724850  0.03944532     0.31900
H3498       H  0.35460683  0.90868952  0.03094867     0.34600
C3499       C  0.51814539  0.74798314  0.24585464     0.20200
C3500       C  0.51883086  0.73879529  0.27216652    -0.39600
C3501       C  0.53571602  0.74551801  0.29093435     0.19200
C3502       C  0.55084797  0.76024311  0.28412916     0.21900
C3503       C  0.55024715  0.76937110  0.25772781    -0.40100
C3504       C  0.53332066  0.76265964  0.23895644     0.20700
N3505       N  0.50350570  0.74443986  0.22445497    -0.33400
C3506       C  0.50947409  0.75693196  0.20373200    -0.11000
C3507       C  0.52799123  0.76850654  0.21203421    -0.29800
N3508       N  0.56468293  0.76441006  0.30611615    -0.46400
C3509       C  0.55820075  0.75225987  0.32707489    -0.05700
C3510       C  0.54028534  0.74022294  0.31826798    -0.23000
H3511       H  0.50690855  0.72741277  0.27776172     0.18800
H3512       H  0.56190182  0.78098560  0.25230638     0.17600
H3513       H  0.53643152  0.77970856  0.19994198     0.13900
H3514       H  0.53134474  0.72938720  0.33052859     0.13700
H3515       H  0.49039956  0.73411279  0.22392421     0.31900
H3516       H  0.57733125  0.77511765  0.30701031     0.34600
C3517       C  0.56502603  0.76013749  0.96325607     0.20200
C3518       C  0.58334487  0.77076915  0.95176536    -0.39600
C3519       C  0.60203429  0.75982706  0.94166384     0.19200
C3520       C  0.60231023  0.73982198  0.94252849     0.21900
C3521       C  0.58413782  0.72920845  0.95431109    -0.40100
C3522       C  0.56559012  0.74015476  0.96472132     0.20700
N3523       N  0.54590147  0.76713690  0.97573291    -0.33400
C3524       C  0.53443321  0.75150720  0.98568061    -0.11000
C3525       C  0.54613500  0.73442831  0.97902649    -0.29800
N3526       N  0.62150710  0.73280239  0.93030128    -0.46400
C3527       C  0.63365114  0.74846485  0.92184719    -0.05700
C3528       C  0.62216282  0.76558098  0.92878509    -0.23000
H3529       H  0.58314226  0.78640462  0.95094452     0.18800
H3530       H  0.58449108  0.71358483  0.95548448     0.17600
H3531       H  0.54168823  0.71985944  0.98527331     0.13900
H3532       H  0.62725227  0.78020735  0.92366234     0.13700
H3533       H  0.54170728  0.78167181  0.97892158     0.31900
H3534       H  0.62578562  0.71827513  0.92721051     0.34600
C3535       C  0.35580064  0.75157796  0.19395253     0.20200
C3536       C  0.33900151  0.73920790  0.20528689    -0.39600
C3537       C  0.31976732  0.74835575  0.21743620     0.19200
C3538       C  0.31771823  0.76828462  0.21855250     0.21900
C3539       C  0.33439738  0.78062517  0.20708969    -0.40100
C3540       C  0.35340320  0.77148929  0.19458362     0.20700
N3541       N  0.37530559  0.74651701  0.18049259    -0.33400
C3542       C  0.38517449  0.76331913  0.17212609    -0.11000
C3543       C  0.37202733  0.77921089  0.18058368    -0.29800
N3544       N  0.29850919  0.77346399  0.23237962    -0.46400
C3545       C  0.28809990  0.75676213  0.24005707    -0.05700
C3546       C  0.30071408  0.74073318  0.23088863    -0.23000
H3547       H  0.34075725  0.72363365  0.20463509     0.18800
H3548       H  0.33265851  0.79620196  0.20779090     0.17600
H3549       H  0.37535326  0.79433133  0.17641900     0.13900
H3550       H  0.29711810  0.72563997  0.23490476     0.13700
H3551       H  0.38108222  0.73248820  0.17629749     0.31900
H3552       H  0.29315206  0.78753916  0.23706181     0.34600
C3553       C  0.40209272  0.40126012  0.25761650     0.20200
C3554       C  0.38178788  0.39026782  0.25772510    -0.39600
C3555       C  0.38486058  0.37017495  0.25775125     0.19200
C3556       C  0.40657008  0.36172439  0.25723313     0.21900
C3557       C  0.42687173  0.37271436  0.25779328    -0.40100
C3558       C  0.42380362  0.39281290  0.25819251     0.20700
N3559       N  0.40376434  0.42034021  0.25311746    -0.33400
C3560       C  0.42662878  0.42410499  0.25109495    -0.11000
C3561       C  0.43974707  0.40737213  0.25458460    -0.29800
N3562       N  0.40491613  0.34264272  0.25267714    -0.46400
C3563       C  0.38205075  0.33890096  0.25069989    -0.05700
C3564       C  0.36892656  0.35563303  0.25406231    -0.23000
H3565       H  0.36487449  0.39686798  0.25603886     0.18800
H3566       H  0.44379192  0.36612498  0.25616013     0.17600
H3567       H  0.45817627  0.40575800  0.25160808     0.13900
H3568       H  0.35046749  0.35720992  0.25129462     0.13700
H3569       H  0.39017081  0.42998972  0.24948809     0.31900
H3570       H  0.41850187  0.33294436  0.24931058     0.34600
C3571       C  0.54711607  0.50099856  0.99781397     0.20200
C3572       C  0.54828641  0.49355786  0.02530558    -0.39600
C3573       C  0.53134716  0.50035089  0.04408130     0.19200
C3574       C  0.51455495  0.51357912  0.03620354     0.21900
C3575       C  0.51346702  0.52108400  0.00879332    -0.40100
C3576       C  0.53033278  0.51424871  0.99001004     0.20700
N3577       N  0.56093346  0.49667564  0.97583084    -0.33400
C3578       C  0.55283832  0.50729558  0.95389425    -0.11000
C3579       C  0.53378668  0.51840408  0.96202320    -0.29800
N3580       N  0.50012070  0.51734893  0.05776160    -0.46400
C3581       C  0.50776706  0.50638707  0.07953101    -0.05700
C3582       C  0.52725661  0.49566746  0.07178894    -0.23000
H3583       H  0.56125549  0.48310301  0.03155050     0.18800
H3584       H  0.50030472  0.53133923  0.00245267     0.17600
H3585       H  0.52375569  0.52822383  0.94911273     0.13900
H3586       H  0.53692355  0.48554928  0.08462658     0.13700
H3587       H  0.57495272  0.48714035  0.97576686     0.31900
H3588       H  0.48583118  0.52659859  0.05756703     0.34600
C3589       C  0.35194394  0.51111802  0.09167039     0.20200
C3590       C  0.33476634  0.52334778  0.08049437    -0.39600
C3591       C  0.31641960  0.51408869  0.06661530     0.19200
C3592       C  0.31548378  0.49418972  0.06388494     0.21900
C3593       C  0.33239748  0.48196890  0.07549830    -0.40100
C3594       C  0.35056931  0.49120299  0.08959316     0.20700
N3595       N  0.37118452  0.51630294  0.10562516    -0.33400
C3596       C  0.38192946  0.49956491  0.11291438    -0.11000
C3597       C  0.36953869  0.48359604  0.10331212    -0.29800
N3598       N  0.29720133  0.48896624  0.04826798    -0.46400
C3599       C  0.28619013  0.50558981  0.04108592    -0.05700
C3600       C  0.29754263  0.52160746  0.05240864    -0.23000
H3601       H  0.33575767  0.53892393  0.08218930     0.18800
H3602       H  0.33159257  0.46640389  0.07343434     0.17600
H3603       H  0.37376685  0.46846954  0.10617339     0.13900
H3604       H  0.29322824  0.53670770  0.04946735     0.13700
H3605       H  0.37636653  0.53034669  0.11057906     0.31900
H3606       H  0.29277368  0.47492558  0.04228634     0.34600
C3607       C  0.56405353  0.50280425  0.31728941     0.20200
C3608       C  0.58288213  0.49195584  0.32708761    -0.39600
C3609       C  0.60158591  0.50270390  0.33719065     0.19200
C3610       C  0.60140978  0.52271579  0.33786921     0.21900
C3611       C  0.58273986  0.53357175  0.32764314    -0.40100
C3612       C  0.56415783  0.52282079  0.31721288     0.20700
N3613       N  0.54473914  0.49603235  0.30526286    -0.33400
C3614       C  0.53272745  0.51184578  0.29688941    -0.11000
C3615       C  0.54421353  0.52882669  0.30413378    -0.29800
N3616       N  0.62058849  0.52945036  0.35027183    -0.46400
C3617       C  0.63312894  0.51360410  0.35728506    -0.05700
C3618       C  0.62197032  0.49666253  0.34919436    -0.23000
H3619       H  0.58297676  0.47631033  0.32681170     0.18800
H3620       H  0.58271385  0.54921828  0.32772625     0.17600
H3621       H  0.53933456  0.54351764  0.29891645     0.13900
H3622       H  0.62728393  0.48192193  0.35338539     0.13700
H3623       H  0.54082263  0.48158295  0.30108091     0.31900
H3624       H  0.62446920  0.54386719  0.35472198     0.34600
C3625       C  0.48610508  0.65096358  0.14859199     0.20200
C3626       C  0.48601790  0.63765803  0.17090745    -0.39600
C3627       C  0.48508436  0.61811271  0.16308044     0.19200
C3628       C  0.48368047  0.61229113  0.13521849     0.21900
C3629       C  0.48421561  0.62557003  0.11292565    -0.40100
C3630       C  0.48578386  0.64506665  0.12071617     0.20700
N3631       N  0.48566455  0.67036426  0.15034777    -0.33400
C3632       C  0.48553068  0.67678218  0.12336545    -0.11000
C3633       C  0.48582321  0.66145630  0.10433027    -0.29800
N3634       N  0.48145746  0.59299580  0.13341726    -0.46400
C3635       C  0.48194804  0.58647842  0.16031626    -0.05700
C3636       C  0.48435012  0.60167842  0.17939142    -0.23000
H3637       H  0.48631650  0.64218410  0.19273044     0.18800
H3638       H  0.48315238  0.62107785  0.09112619     0.17600
H3639       H  0.48481268  0.66223364  0.08158916     0.13900
H3640       H  0.48467636  0.60083471  0.20215819     0.13700
H3641       H  0.48497634  0.67870295  0.16867794     0.31900
H3642       H  0.47964618  0.58478131  0.11508895     0.34600
C3643       C  0.40590327  0.86017999  0.76123204     0.20200
C3644       C  0.42595905  0.87152278  0.76199522    -0.39600
C3645       C  0.42245791  0.89159546  0.76200067     0.19200
C3646       C  0.40058153  0.89969321  0.76086574     0.21900
C3647       C  0.38052438  0.88835702  0.76074670    -0.40100
C3648       C  0.38401657  0.86829055  0.76116281     0.20700
N3649       N  0.40471713  0.84104333  0.75675800    -0.33400
C3650       C  0.38196810  0.83688381  0.75415453    -0.11000
C3651       C  0.36846302  0.85345973  0.75715209    -0.29800
N3652       N  0.40188832  0.91879556  0.75621508    -0.46400
C3653       C  0.42469121  0.92294841  0.75465214    -0.05700
C3654       C  0.43812199  0.90641850  0.75860245    -0.23000
H3655       H  0.44304367  0.86519334  0.76079065     0.18800
H3656       H  0.36349770  0.89468043  0.75860066     0.17600
H3657       H  0.35005830  0.85478795  0.75368586     0.13900
H3658       H  0.45663639  0.90509974  0.75615579     0.13700
H3659       H  0.41858573  0.83159574  0.75360080     0.31900
H3660       H  0.38812111  0.92822154  0.75232929     0.34600
C3661       C  0.27913233  0.76242903  0.54489736     0.20200
C3662       C  0.26110958  0.76930620  0.52771926    -0.39600
C3663       C  0.26097340  0.76240609  0.49991152     0.19200
C3664       C  0.27748156  0.74956110  0.49011997     0.21900
C3665       C  0.29544104  0.74263636  0.50730341    -0.40100
C3666       C  0.29563974  0.74960378  0.53505120     0.20700
N3667       N  0.28327455  0.76701522  0.57193028    -0.33400
C3668       C  0.30257903  0.75707725  0.57942732    -0.11000
C3669       C  0.31077400  0.74600867  0.55694069    -0.29800
N3670       N  0.27371157  0.74530532  0.46292854    -0.46400
C3671       C  0.25468705  0.75551473  0.45519866    -0.05700
C3672       C  0.24621901  0.76638140  0.47774090    -0.23000
H3673       H  0.24824949  0.77939625  0.53538604     0.18800
H3674       H  0.30839958  0.73265943  0.49956538     0.17600
H3675       H  0.32579328  0.73666337  0.55662641     0.13900
H3676       H  0.23134130  0.77588551  0.47787585     0.13700
H3677       H  0.27355871  0.77639077  0.58450193     0.31900
H3678       H  0.28358499  0.73604856  0.45034875     0.34600
C3679       C  0.49111689  0.74990892  0.56513489     0.20200
C3680       C  0.47230060  0.73950301  0.57583889    -0.39600
C3681       C  0.45524756  0.75055553  0.58940612     0.19200
C3682       C  0.45693475  0.77041479  0.59232820     0.21900
C3683       C  0.47553001  0.78084837  0.58121086    -0.40100
C3684       C  0.49244906  0.76982616  0.56745184     0.20700
N3685       N  0.50922655  0.74289505  0.55060649    -0.33400
C3686       C  0.52184993  0.75853868  0.54313174    -0.11000
C3687       C  0.51201140  0.77555474  0.55341429    -0.29800
N3688       N  0.43912761  0.77742472  0.60735042    -0.46400
C3689       C  0.42589882  0.76193689  0.61389786    -0.05700
C3690       C  0.43526957  0.74494728  0.60281361    -0.23000
H3691       H  0.47104188  0.72396015  0.57379185     0.18800
H3692       H  0.47674394  0.79640262  0.58313501     0.17600
H3693       H  0.51794448  0.79020603  0.55014392     0.13900
H3694       H  0.42884890  0.73037132  0.60529013     0.13700
H3695       H  0.51217867  0.72851190  0.54490761     0.31900
H3696       H  0.43638921  0.79179762  0.61325797     0.34600
C3697       C  0.20402015  0.75887658  0.83945677     0.20200
C3698       C  0.22144256  0.77072108  0.82853771    -0.39600
C3699       C  0.24051385  0.76100566  0.81711924     0.19200
C3700       C  0.24190902  0.74102720  0.81624740     0.21900
C3701       C  0.22465715  0.72918574  0.82756866    -0.40100
C3702       C  0.20575148  0.73890799  0.83937044     0.20700
N3703       N  0.18452403  0.76458866  0.85224997    -0.33400
C3704       C  0.17401591  0.74816529  0.86089050    -0.11000
C3705       C  0.18669692  0.73182941  0.85320830    -0.29800
N3706       N  0.26104878  0.73533044  0.80265845    -0.46400
C3707       C  0.27202338  0.75179213  0.79509511    -0.05700
C3708       C  0.25987684  0.76811973  0.80396755    -0.23000
H3709       H  0.22022015  0.78633582  0.82888309     0.18800
H3710       H  0.22586953  0.71357088  0.82720656     0.17600
H3711       H  0.18292714  0.71687922  0.85805150     0.13900
H3712       H  0.26392178  0.78311154  0.79977036     0.13700
H3713       H  0.17932893  0.77880463  0.85623691     0.31900
H3714       H  0.26595525  0.72114242  0.79798706     0.34600
C3715       C  0.39930949  0.75858685  0.92189519     0.20200
C3716       C  0.37991282  0.75807133  0.90412313    -0.39600
C3717       C  0.38461977  0.75723210  0.87512390     0.19200
C3718       C  0.40693572  0.75645277  0.86473781     0.21900
C3719       C  0.42629575  0.75724691  0.88247501    -0.40100
C3720       C  0.42159973  0.75857468  0.91138794     0.20700
N3721       N  0.39952067  0.75947739  0.95018974    -0.33400
C3722       C  0.42208014  0.76043790  0.95767293    -0.11000
C3723       C  0.43637843  0.76000357  0.93406021    -0.29800
N3724       N  0.40685263  0.75576118  0.83645739    -0.46400
C3725       C  0.38436859  0.75660189  0.82868056    -0.05700
C3726       C  0.36993687  0.75750349  0.85220447    -0.23000
H3727       H  0.36246732  0.75854532  0.91225394     0.18800
H3728       H  0.44374090  0.75709437  0.87432511     0.17600
H3729       H  0.45505551  0.76026765  0.93361606     0.13900
H3730       H  0.35127992  0.75839467  0.85246094     0.13700
H3731       H  0.38522614  0.75960696  0.96359683     0.31900
H3732       H  0.42123476  0.75542099  0.82319719     0.34600
C3733       C  0.38501145  0.39277276  0.52735786     0.20200
C3734       C  0.38077368  0.37285847  0.52888071    -0.39600
C3735       C  0.40034819  0.36087244  0.52873123     0.19200
C3736       C  0.42257378  0.36806266  0.52681452     0.21900
C3737       C  0.42684500  0.38803553  0.52570122    -0.40100
C3738       C  0.40723348  0.40006203  0.52624099     0.20700
N3739       N  0.36950511  0.40709928  0.53082049    -0.33400
C3740       C  0.38194185  0.42358520  0.53258745    -0.11000
C3741       C  0.40550263  0.41979671  0.52969985    -0.29800
N3742       N  0.43822065  0.35376412  0.53009549    -0.46400
C3743       C  0.42579077  0.33749843  0.53474819    -0.05700
C3744       C  0.40217954  0.34137808  0.53391892    -0.23000
H3745       H  0.36354926  0.36715893  0.53168402     0.18800
H3746       H  0.44418028  0.39381732  0.52609231     0.17600
H3747       H  0.41955480  0.42991839  0.53227935     0.13900
H3748       H  0.38826877  0.33150671  0.53873116     0.13700
H3749       H  0.35183309  0.40557452  0.53454663     0.31900
H3750       H  0.45611348  0.35526230  0.53163612     0.34600
C3751       C  0.27902923  0.50013092  0.73984830     0.20200
C3752       C  0.26195553  0.49222242  0.75733443    -0.39600
C3753       C  0.25963497  0.50081331  0.78391676     0.19200
C3754       C  0.27330376  0.51612250  0.79235830     0.21900
C3755       C  0.29045456  0.52400252  0.77489772    -0.40100
C3756       C  0.29279100  0.51538486  0.74828808     0.20700
N3757       N  0.28434576  0.49467236  0.71352632    -0.33400
C3758       C  0.30164828  0.50647494  0.70500167    -0.11000
C3759       C  0.30746221  0.51959802  0.72617785    -0.29800
N3760       N  0.26776428  0.52164964  0.81860054    -0.46400
C3761       C  0.25048864  0.50975909  0.82701881    -0.05700
C3762       C  0.24491283  0.49655589  0.80590691    -0.23000
H3763       H  0.25123808  0.48027528  0.75069113     0.18800
H3764       H  0.30114688  0.53596944  0.78153170     0.17600
H3765       H  0.32039049  0.53084047  0.72535541     0.13900
H3766       H  0.23204418  0.48526350  0.80666394     0.13700
H3767       H  0.27650483  0.48364553  0.70196705     0.31900
H3768       H  0.27546807  0.53272901  0.83019199     0.34600
C3769       C  0.48724012  0.51144099  0.72006834     0.20200
C3770       C  0.46725118  0.52146494  0.71178064    -0.39600
C3771       C  0.45056483  0.51044693  0.69766183     0.19200
C3772       C  0.45368659  0.49098826  0.69196213     0.21900
C3773       C  0.47349472  0.48089299  0.70061998    -0.40100
C3774       C  0.49003635  0.49185834  0.71502794     0.20700
N3775       N  0.50529500  0.51847130  0.73458327    -0.33400
C3776       C  0.51940107  0.50315317  0.73935907    -0.11000
C3777       C  0.51050307  0.48632399  0.72740673    -0.29800
N3778       N  0.43593829  0.48406353  0.67686275    -0.46400
C3779       C  0.42133023  0.49919045  0.67300496    -0.05700
C3780       C  0.42974861  0.51585703  0.68594400    -0.23000
H3781       H  0.46488087  0.53672007  0.71597753     0.18800
H3782       H  0.47584306  0.46562712  0.69646581     0.17600
H3783       H  0.51764091  0.47186309  0.72856982     0.13900
H3784       H  0.42227086  0.53021411  0.68549715     0.13700
H3785       H  0.50726526  0.53254653  0.74215905     0.31900
H3786       H  0.43423772  0.47006309  0.66889271     0.34600
C3787       C  0.24089559  0.50118904  0.46433034     0.20200
C3788       C  0.22066929  0.49147542  0.45651210    -0.39600
C3789       C  0.20336470  0.50298839  0.44437171     0.19200
C3790       C  0.20613790  0.52260999  0.43984839     0.21900
C3791       C  0.22626111  0.53237337  0.44791788    -0.40100
C3792       C  0.24339868  0.52091978  0.46054087     0.20700
N3793       N  0.25906796  0.49380889  0.47832153    -0.33400
C3794       C  0.27289890  0.50904499  0.48417784    -0.11000
C3795       C  0.26381709  0.52615324  0.47318090    -0.29800
N3796       N  0.18768330  0.53004129  0.42649082    -0.46400
C3797       C  0.17302207  0.51503583  0.42261163    -0.05700
C3798       C  0.18208389  0.49798961  0.43382430    -0.23000
H3799       H  0.21844959  0.47612748  0.45995324     0.18800
H3800       H  0.22828799  0.54778995  0.44497290     0.17600
H3801       H  0.27045951  0.54064547  0.47583895     0.13900
H3802       H  0.17478820  0.48362848  0.43264184     0.13700
H3803       H  0.26097317  0.47962259  0.48552846     0.31900
H3804       H  0.18562542  0.54424084  0.41940339     0.34600
C3805       C  0.38433924  0.49707012  0.41069981     0.20200
C3806       C  0.37789846  0.49620716  0.38215053    -0.39600
C3807       C  0.39604170  0.49751616  0.36256975     0.19200
C3808       C  0.41887013  0.49901948  0.37088956     0.21900
C3809       C  0.42524709  0.50025061  0.39938096    -0.40100
C3810       C  0.40708698  0.49944145  0.41889158     0.20700
N3811       N  0.37039471  0.49643554  0.43334998    -0.33400
C3812       C  0.38431436  0.49886435  0.45605852    -0.11000
C3813       C  0.40731036  0.50085327  0.44787413    -0.29800
N3814       N  0.43290565  0.49965721  0.34835903    -0.46400
C3815       C  0.41896396  0.49903941  0.32543227    -0.05700
C3816       C  0.39580098  0.49777724  0.33342898    -0.23000
H3817       H  0.36006548  0.49483228  0.37566837     0.18800
H3818       H  0.44304025  0.50192348  0.40587138     0.17600
H3819       H  0.42217282  0.50295856  0.46134120     0.13900
H3820       H  0.38086740  0.49699738  0.31977592     0.13700
H3821       H  0.35246201  0.49489805  0.43335731     0.31900
H3822       H  0.45087241  0.50088640  0.34853304     0.34600
C3823       C  0.31982976  0.61691269  0.61871877     0.20200
C3824       C  0.32248384  0.63611359  0.60961386    -0.39600
C3825       C  0.32149254  0.65026876  0.63079458     0.19200
C3826       C  0.31769533  0.64563761  0.65878018     0.21900
C3827       C  0.31549540  0.62644086  0.66792450    -0.40100
C3828       C  0.31692638  0.61228013  0.64686263     0.20700
N3829       N  0.32139363  0.60078764  0.60302503    -0.33400
C3830       C  0.32009457  0.58580918  0.62139034    -0.11000
C3831       C  0.31726831  0.59239332  0.64893150    -0.29800
N3832       N  0.31797406  0.66159380  0.67489803    -0.46400
C3833       C  0.32245546  0.67649111  0.65721319    -0.05700
C3834       C  0.32479666  0.67000845  0.62948857    -0.23000
H3835       H  0.32568479  0.63971630  0.58777626     0.18800
H3836       H  0.31344668  0.62277469  0.68994286     0.17600
H3837       H  0.31634069  0.58380297  0.66794958     0.13900
H3838       H  0.32887935  0.67852519  0.61103260     0.13700
H3839       H  0.32444977  0.60000302  0.58136647     0.31900
H3840       H  0.31622858  0.66221393  0.69678181     0.34600
loop_ 
_geom_bond_atom_site_label_1 
_geom_bond_atom_site_label_2 
_geom_bond_distance 
_geom_bond_site_symmetry_2 
_ccdc_geom_bond_type 
Zr1           O2   2.440       .  S
Zr1           O3   2.450       .  S
Zr1           O4   2.450       .  S
Zr1           O7   2.433       .  S
Zr1           O9   2.376       .  S
Zr1          O10   2.388       .  S
Zr1          O11   2.409       .  S
Zr1          O12   2.405       .  S
O2           H58   0.990       .  S
O2           H66   0.990       .  S
O3           C23   1.286       .  A
O4           C25   1.286       .  A
O5          Zr15   2.427       .  S
O5           C24   1.283       .  A
O6          Zr14   2.425       .  S
O6           C25   1.282       .  A
O7           C24   1.285       .  A
O8          Zr16   2.414       .  S
O8           C23   1.280       .  A
O9          Zr14   2.393       .  S
O9          Zr16   2.381       .  S
O10         Zr15   2.391       .  S
O10         Zr16   2.380       .  S
O10          H45   0.966       .  S
O11         Zr14   2.396       .  S
O11         Zr31   2.397       .  S
O11          H48   0.966       .  S
O12         Zr15   2.388       .  S
O12         Zr31   2.391       .  S
Zr13         O38   2.439       .  S
Zr13         O32   2.435       .  S
Zr13         O40   2.448       .  S
Zr13         O28   2.446       .  S
Zr13         O19   2.406       .  S
Zr13         O20   2.406       .  S
Zr13         O21   2.383       .  S
Zr13         O22   2.384       .  S
Zr14         O33   2.437       .  S
Zr14         O26   2.435       .  S
Zr14         O27   2.422       .  S
Zr14         O20   2.401       .  S
Zr14         O21   2.391       .  S
Zr15         O17   2.437       .  S
Zr15         O39   2.436       .  S
Zr15         O41   2.423       .  S
Zr15         O19   2.392       .  S
Zr15         O22   2.392       .  S
Zr16         O42   2.436       .  S
Zr16         O43   2.435       .  S
Zr16         O18   2.438       .  S
Zr16         O19   2.400       .  S
Zr16         O20   2.388       .  S
O17          H54   0.990       .  S
O18          H49   0.990       .  S
O18          H63   0.990       .  S
O20          H46   0.965       .  S
O21         Zr31   2.377       .  S
O22         Zr31   2.364       .  S
O22          H47   0.966       .  S
C23        C3758   1.475       .  S
C24        C3779   1.472       .  S
C25        C3830   1.471       .  S
O26          H62   0.990       .  S
O27          C29   1.283       .  A
O28          C29   1.286       .  A
C29        C3794   1.467       .  S
O30         Zr31   2.439       .  S
O30          H59   0.990       .  S
Zr31         O34   2.437       .  S
Zr31         O35   2.441       .  S
Zr31         O36   2.434       .  S
O32          C37   1.284       .  A
O33          H50   0.990       .  S
O33          H65   0.990       .  S
O34          H51   0.990       .  S
O35          H55   0.990       .  S
O35          H64   0.990       .  S
O36          C37   1.284       .  A
C37        C3812   1.474       .  S
O38          H57   0.990       .  S
O38          H61   0.990       .  S
O39          H53   0.990       .  S
O39          H60   0.990       .  S
O40          C44   1.287       .  A
O41          C44   1.282       .  A
O42          H52   0.990       .  S
O43          H56   0.990       .  S
C44        C3740   1.468       .  S
Zr67         O68   2.443       .  S
Zr67         O69   2.454       .  S
Zr67         O70   2.445       .  S
Zr67         O73   2.437       .  S
Zr67         O75   2.378       .  S
Zr67         O76   2.386       .  S
Zr67         O77   2.415       .  S
Zr67         O78   2.407       .  S
O68         H124   0.991       .  S
O68         H132   0.991       .  S
O69          C89   1.286       .  A
O70          C91   1.284       .  A
O71         Zr81   2.431       .  S
O71          C90   1.283       .  A
O72         Zr80   2.428       .  S
O72          C91   1.283       .  A
O73          C90   1.285       .  A
O74         Zr82   2.413       .  S
O74          C89   1.279       .  A
O75         Zr80   2.397       .  S
O75         Zr82   2.384       .  S
O76         Zr81   2.396       .  S
O76         Zr82   2.380       .  S
O76         H111   0.966       .  S
O77         Zr80   2.402       .  S
O77         Zr97   2.404       .  S
O77         H114   0.966       .  S
O78         Zr81   2.389       .  S
O78         Zr97   2.394       .  S
Zr79        O104   2.441       .  S
Zr79         O98   2.437       .  S
Zr79        O106   2.449       .  S
Zr79         O94   2.442       .  S
Zr79         O85   2.407       .  S
Zr79         O86   2.409       .  S
Zr79         O87   2.381       .  S
Zr79         O88   2.382       .  S
Zr80         O99   2.436       .  S
Zr80         O92   2.434       .  S
Zr80         O93   2.421       .  S
Zr80         O86   2.403       .  S
Zr80         O87   2.392       .  S
Zr81         O83   2.436       .  S
Zr81        O105   2.436       .  S
Zr81        O107   2.419       .  S
Zr81         O85   2.395       .  S
Zr81         O88   2.394       .  S
Zr82        O108   2.434       .  S
Zr82        O109   2.436       .  S
Zr82         O84   2.438       .  S
Zr82         O85   2.397       .  S
Zr82         O86   2.383       .  S
O83         H120   0.990       .  S
O84         H115   0.990       .  S
O84         H129   0.990       .  S
O86         H112   0.965       .  S
O87         Zr97   2.376       .  S
O88         Zr97   2.366       .  S
O88         H113   0.966       .  S
C89        C3668   1.478       .  S
C90        C3689   1.473       .  S
C91        C3833   1.473       .  S
O92         H128   0.990       .  S
O93          C95   1.282       .  A
O94          C95   1.285       .  A
C95        C3707   1.465       .  S
O96         Zr97   2.438       .  S
O96         H125   0.991       .  S
Zr97        O100   2.437       .  S
Zr97        O101   2.440       .  S
Zr97        O102   2.431       .  S
O98         C103   1.283       .  A
O99         H116   0.990       .  S
O99         H131   0.990       .  S
O100        H117   0.990       .  S
O101        H121   0.990       .  S
O101        H130   0.990       .  S
O102        C103   1.282       .  A
C103       C3725   1.472       .  S
O104        H123   0.990       .  S
O104        H127   0.991       .  S
O105        H119   0.990       .  S
O105        H126   0.990       .  S
O106        C110   1.286       .  A
O107        C110   1.281       .  A
O108        H118   0.990       .  S
O109        H122   0.990       .  S
C110       C3650   1.467       .  S
Zr133       O134   2.441       .  S
Zr133       O135   2.459       .  S
Zr133       O136   2.449       .  S
Zr133       O139   2.444       .  S
Zr133       O141   2.380       .  S
Zr133       O142   2.389       .  S
Zr133       O143   2.418       .  S
Zr133       O144   2.405       .  S
O134        H190   0.990       .  S
O134        H198   0.991       .  S
O135        C155   1.287       .  A
O136        C157   1.285       .  A
O137       Zr147   2.436       .  S
O137        C156   1.284       .  A
O138       Zr146   2.417       .  S
O138        C157   1.280       .  A
O139        C156   1.285       .  A
O140       Zr148   2.401       .  S
O140        C155   1.277       .  A
O141       Zr146   2.392       .  S
O141       Zr148   2.386       .  S
O142       Zr147   2.392       .  S
O142       Zr148   2.383       .  S
O142        H177   0.966       .  S
O143       Zr146   2.399       .  S
O143       Zr163   2.406       .  S
O143        H180   0.966       .  S
O144       Zr147   2.387       .  S
O144       Zr163   2.393       .  S
Zr145       O170   2.441       .  S
Zr145       O164   2.438       .  S
Zr145       O172   2.439       .  S
Zr145       O160   2.446       .  S
Zr145       O151   2.409       .  S
Zr145       O152   2.403       .  S
Zr145       O153   2.381       .  S
Zr145       O154   2.385       .  S
Zr146       O165   2.436       .  S
Zr146       O158   2.436       .  S
Zr146       O159   2.409       .  S
Zr146       O152   2.400       .  S
Zr146       O153   2.393       .  S
Zr147       O149   2.436       .  S
Zr147       O171   2.437       .  S
Zr147       O173   2.423       .  S
Zr147       O151   2.393       .  S
Zr147       O154   2.399       .  S
Zr148       O174   2.438       .  S
Zr148       O175   2.436       .  S
Zr148       O150   2.438       .  S
Zr148       O151   2.394       .  S
Zr148       O152   2.384       .  S
O149        H186   0.990       .  S
O150        H181   0.990       .  S
O150        H195   0.990       .  S
O152        H178   0.965       .  S
O153       Zr163   2.377       .  S
O154       Zr163   2.363       .  S
O154        H179   0.965       .  S
C155       C3581   1.476       .  S
C156       C3596   1.477       .  S
C157       C3635   1.468       .  S
O158        H194   0.990       .  S
O159        C161   1.280       .  A
O160        C161   1.285       .  A
C161       C3614   1.464       .  S
O162       Zr163   2.438       .  S
O162        H191   0.991       .  S
Zr163       O166   2.437       .  S
Zr163       O167   2.440       .  S
Zr163       O168   2.445       .  S
O164        C169   1.284       .  A
O165        H182   0.990       .  S
O165        H197   0.990       .  S
O166        H183   0.990       .  S
O167        H187   0.990       .  S
O167        H196   0.990       .  S
O168        C169   1.285       .  A
C169       C3815   1.478       .  S
O170        H189   0.991       .  S
O170        H193   0.990       .  S
O171        H185   0.990       .  S
O171        H192   0.990       .  S
O172        C176   1.285       .  A
O173        C176   1.282       .  A
O174        H184   0.990       .  S
O175        H188   0.990       .  S
C176       C3560   1.462       .  S
Zr199       O200   2.442       .  S
Zr199       O201   2.455       .  S
Zr199       O202   2.441       .  S
Zr199       O205   2.435       .  S
Zr199       O207   2.377       .  S
Zr199       O208   2.387       .  S
Zr199       O209   2.414       .  S
Zr199       O210   2.401       .  S
O200        H256   0.990       .  S
O200        H264   0.991       .  S
O201        C221   1.287       .  A
O202        C223   1.283       .  A
O203       Zr213   2.431       .  S
O203        C222   1.283       .  A
O204       Zr212   2.422       .  S
O204        C223   1.282       .  A
O205        C222   1.284       .  A
O206       Zr214   2.403       .  S
O206        C221   1.278       .  A
O207       Zr212   2.395       .  S
O207       Zr214   2.385       .  S
O208       Zr213   2.390       .  S
O208       Zr214   2.381       .  S
O208        H243   0.966       .  S
O209       Zr212   2.397       .  S
O209       Zr229   2.403       .  S
O209        H246   0.966       .  S
O210       Zr213   2.382       .  S
O210       Zr229   2.386       .  S
Zr211       O236   2.441       .  S
Zr211       O230   2.438   1_554  S
Zr211       O238   2.451       .  S
Zr211       O226   2.457       .  S
Zr211       O217   2.409       .  S
Zr211       O218   2.404       .  S
Zr211       O219   2.382       .  S
Zr211       O220   2.386       .  S
Zr212       O231   2.438       .  S
Zr212       O224   2.435       .  S
Zr212       O225   2.419       .  S
Zr212       O218   2.401       .  S
Zr212       O219   2.390       .  S
Zr213       O215   2.436       .  S
Zr213       O237   2.436       .  S
Zr213       O239   2.415       .  S
Zr213       O217   2.394       .  S
Zr213       O220   2.396       .  S
Zr214       O240   2.435       .  S
Zr214       O241   2.436       .  S
Zr214       O216   2.436       .  S
Zr214       O217   2.392       .  S
Zr214       O218   2.383       .  S
O215        H252   0.990       .  S
O216        H247   0.990       .  S
O216        H261   0.990       .  S
O218        H244   0.965       .  S
O219       Zr229   2.378       .  S
O220       Zr229   2.365       .  S
O220        H245   0.966       .  S
C221       C3506   1.474       .  S
C222       C3542   1.471       .  S
C223       C3632   1.467       .  S
O224        H260   0.990       .  S
O225        C227   1.282       .  A
O226        C227   1.288       .  A
C227       C3524   1.472   1_554  S
O228       Zr229   2.437       .  S
O228        H257   0.990       .  S
Zr229       O232   2.435       .  S
Zr229       O233   2.441       .  S
Zr229       O234   2.428       .  S
O230        C235   1.285       .  A
O231        H248   0.990       .  S
O231        H263   0.990       .  S
O232        H249   0.990       .  S
O233        H253   0.990       .  S
O233        H262   0.990       .  S
O234        C235   1.282   1_554  A
C235       C3722   1.471       .  S
O236        H255   0.990       .  S
O236        H259   0.990   1_554  S
O237        H251   0.990       .  S
O237        H258   0.990       .  S
O238        C242   1.287       .  A
O239        C242   1.281       .  A
O240        H250   0.990       .  S
O241        H254   0.990       .  S
C242       C3488   1.464       .  S
Zr265       O266   2.438       .  S
Zr265       O267   2.429       .  S
Zr265       O268   2.450       .  S
Zr265       O271   2.436       .  S
Zr265       O273   2.385       .  S
Zr265       O274   2.385       .  S
Zr265       O275   2.405       .  S
Zr265       O276   2.395       .  S
O266        H322   0.990       .  S
O266        H330   0.990       .  S
O267        C287   1.283       .  A
O268        C289   1.286       .  A
O269       Zr279   2.411       .  S
O269        C288   1.281       .  A
O270       Zr278   2.423       .  S
O270        C289   1.282       .  A
O271        C288   1.285       .  A
O272       Zr280   2.430       .  S
O272        C287   1.282       .  A
O273       Zr278   2.392       .  S
O273       Zr280   2.371       .  S
O274       Zr279   2.388       .  S
O274       Zr280   2.369       .  S
O274        H309   0.966       .  S
O275       Zr278   2.393       .  S
O275       Zr295   2.395       .  S
O275        H312   0.965       .  S
O276       Zr279   2.392       .  S
O276       Zr295   2.386       .  S
Zr277       O302   2.442       .  S
Zr277       O296   2.456       .  S
Zr277       O304   2.453       .  S
Zr277       O292   2.435       .  S
Zr277       O283   2.407       .  S
Zr277       O284   2.418       .  S
Zr277       O285   2.385       .  S
Zr277       O286   2.381       .  S
Zr278       O297   2.434       .  S
Zr278       O290   2.435       .  S
Zr278       O291   2.428       .  S
Zr278       O284   2.397       .  S
Zr278       O285   2.389       .  S
Zr279       O281   2.437       .  S
Zr279       O303   2.439       .  S
Zr279       O305   2.420       .  S
Zr279       O283   2.388       .  S
Zr279       O286   2.395       .  S
Zr280       O306   2.436       .  S
Zr280       O307   2.435       .  S
Zr280       O282   2.438       .  S
Zr280       O283   2.402       .  S
Zr280       O284   2.392       .  S
O281        H318   0.990       .  S
O282        H313   0.990       .  S
O282        H327   0.990       .  S
O284        H310   0.965       .  S
O285       Zr295   2.382       .  S
O286       Zr295   2.390       .  S
O286        H311   0.966       .  S
C287       C3455   1.469       .  S
C288       C3437   1.463       .  S
C289       C3401   1.471       .  S
O290        H326   0.990       .  S
O291        C293   1.283       .  A
O292        C293   1.285       .  A
C293       C3797   1.469       .  S
O294       Zr295   2.436       .  S
O294        H323   0.990       .  S
Zr295       O298   2.436       .  S
Zr295       O299   2.437       .  S
Zr295       O300   2.408       .  S
O296        C301   1.287       .  A
O297        H314   0.990       .  S
O297        H329   0.990       .  S
O298        H315   0.990       .  S
O299        H319   0.990       .  S
O299        H328   0.990       .  S
O300        C301   1.279       .  A
C301       C3419   1.477       .  S
O302        H321   0.990       .  S
O302        H325   0.990       .  S
O303        H317   0.990       .  S
O303        H324   0.990       .  S
O304        C308   1.286       .  A
O305        C308   1.281       .  A
O306        H316   0.990       .  S
O307        H320   0.990       .  S
C308       C3470   1.473       .  S
Zr331       O332   2.439       .  S
Zr331       O333   2.433       .  S
Zr331       O334   2.462       .  S
Zr331       O337   2.447       .  S
Zr331       O339   2.382       .  S
Zr331       O340   2.391       .  S
Zr331       O341   2.408       .  S
Zr331       O342   2.397       .  S
O332        H388   0.990       .  S
O332        H396   0.990       .  S
O333        C353   1.283       .  A
O334        C355   1.288       .  A
O335       Zr345   2.411       .  S
O335        C354   1.281       .  A
O336       Zr344   2.419       .  S
O336        C355   1.280       .  A
O337        C354   1.287       .  A
O338       Zr346   2.424       .  S
O338        C353   1.281       .  A
O339       Zr344   2.391       .  S
O339       Zr346   2.374       .  S
O340       Zr345   2.388       .  S
O340       Zr346   2.372       .  S
O340        H375   0.966       .  S
O341       Zr344   2.392       .  S
O341       Zr361   2.397       .  S
O341        H378   0.966       .  S
O342       Zr345   2.384       .  S
O342       Zr361   2.377       .  S
Zr343       O368   2.442       .  S
Zr343       O362   2.456       .  S
Zr343       O370   2.447       .  S
Zr343       O358   2.448       .  S
Zr343       O349   2.413       .  S
Zr343       O350   2.416       .  S
Zr343       O351   2.385       .  S
Zr343       O352   2.383       .  S
Zr344       O363   2.435       .  S
Zr344       O356   2.434       .  S
Zr344       O357   2.422       .  S
Zr344       O350   2.396       .  S
Zr344       O351   2.390       .  S
Zr345       O347   2.436       .  S
Zr345       O369   2.438       .  S
Zr345       O371   2.421       .  S
Zr345       O349   2.391       .  S
Zr345       O352   2.391       .  S
Zr346       O372   2.438       .  S
Zr346       O373   2.435       .  S
Zr346       O348   2.436       .  S
Zr346       O349   2.403       .  S
Zr346       O350   2.382       .  S
O347        H384   0.990       .  S
O348        H379   0.990       .  S
O348        H393   0.990       .  S
O350        H376   0.964       .  S
O351       Zr361   2.386       .  S
O352       Zr361   2.384       .  S
O352        H377   0.966       .  S
C353       C3383   1.465       .  S
C354       C3344   1.467       .  S
C355       C3311   1.477       .  S
O356        H392   0.990       .  S
O357        C359   1.282       .  A
O358        C359   1.286       .  A
C359       C3365   1.471       .  S
O360       Zr361   2.438       .  S
O360        H389   0.990       .  S
Zr361       O364   2.435       .  S
Zr361       O365   2.441       .  S
Zr361       O366   2.404       .  S
O362        C367   1.286       .  A
O363        H380   0.990       .  S
O363        H395   0.990       .  S
O364        H381   0.990       .  S
O365        H385   0.990       .  S
O365        H394   0.990       .  S
O366        C367   1.279       .  A
C367       C3329   1.474       .  S
O368        H387   0.990       .  S
O368        H391   0.990       .  S
O369        H383   0.990       .  S
O369        H390   0.990       .  S
O370        C374   1.284       .  A
O371        C374   1.281       .  A
O372        H382   0.990       .  S
O373        H386   0.990       .  S
C374       C3473   1.472       .  S
Zr397       O398   2.441   1_556  S
Zr397       O399   2.437   1_556  S
Zr397       O400   2.471   1_556  S
Zr397       O403   2.451   1_556  S
Zr397       O405   2.383       .  S
Zr397       O406   2.392       .  S
Zr397       O407   2.408       .  S
Zr397       O408   2.406       .  S
O398        H454   0.990       .  S
O398        H462   0.990       .  S
O399        C419   1.283       .  A
O400        C421   1.289   1_554  A
O401       Zr411   2.429   1_554  S
O401        C420   1.283       .  A
O402       Zr410   2.409       .  S
O402        C421   1.279       .  A
O403        C420   1.288       .  A
O404       Zr412   2.424   1_554  S
O404        C419   1.281       .  A
O405       Zr410   2.395       .  S
O405       Zr412   2.373       .  S
O406       Zr411   2.396       .  S
O406       Zr412   2.376       .  S
O406        H441   0.966   1_556  S
O407       Zr410   2.400       .  S
O407       Zr427   2.398       .  S
O407        H444   0.966       .  S
O408       Zr411   2.399       .  S
O408       Zr427   2.390       .  S
Zr409       O434   2.443       .  S
Zr409       O428   2.460       .  S
Zr409       O436   2.433       .  S
Zr409       O424   2.434       .  S
Zr409       O415   2.407       .  S
Zr409       O416   2.414       .  S
Zr409       O417   2.378       .  S
Zr409       O418   2.383       .  S
Zr410       O429   2.436       .  S
Zr410       O422   2.435       .  S
Zr410       O423   2.427       .  S
Zr410       O416   2.391       .  S
Zr410       O417   2.388       .  S
Zr411       O413   2.436       .  S
Zr411       O435   2.437       .  S
Zr411       O437   2.440       .  S
Zr411       O415   2.391       .  S
Zr411       O418   2.391       .  S
Zr412       O438   2.435   1_556  S
Zr412       O439   2.436       .  S
Zr412       O414   2.438       .  S
Zr412       O415   2.395       .  S
Zr412       O416   2.391       .  S
O413        H450   0.990       .  S
O414        H445   0.990       .  S
O414        H459   0.990       .  S
O416        H442   0.965       .  S
O417       Zr427   2.384       .  S
O418       Zr427   2.387       .  S
O418        H443   0.965       .  S
C419       C3452   1.468       .  S
C420       C3599   1.478       .  S
C421       C3254   1.474   1_556  S
O422        H458   0.990       .  S
O423        C425   1.283       .  A
O424        C425   1.283       .  A
C425       C3272   1.467       .  S
O426       Zr427   2.438       .  S
O426        H455   0.990       .  S
Zr427       O430   2.437       .  S
Zr427       O431   2.440       .  S
Zr427       O432   2.401       .  S
O428        C433   1.288       .  A
O429        H446   0.990       .  S
O429        H461   0.990       .  S
O430        H447   0.990       .  S
O431        H451   0.990       .  S
O431        H460   0.990       .  S
O432        C433   1.277       .  A
C433       C3761   1.474       .  S
O434        H453   0.990       .  S
O434        H457   0.991       .  S
O435        H449   0.990       .  S
O435        H456   0.990   1_556  S
O436        C440   1.282       .  A
O437        C440   1.284       .  A
O438        H448   0.990       .  S
O439        H452   0.990       .  S
C440       C3293   1.471       .  S
Zr463       O464   2.441       .  S
Zr463       O465   2.424       .  S
Zr463       O466   2.457       .  S
Zr463       O469   2.441       .  S
Zr463       O471   2.384       .  S
Zr463       O472   2.392       .  S
Zr463       O473   2.402       .  S
Zr463       O474   2.398       .  S
O464        H520   0.990       .  S
O464        H528   0.990       .  S
O465        C485   1.281       .  A
O466        C487   1.286       .  A
O467       Zr477   2.417       .  S
O467        C486   1.281       .  A
O468       Zr476   2.417       .  S
O468        C487   1.280       .  A
O469        C486   1.286       .  A
O470       Zr478   2.426       .  S
O470        C485   1.282       .  A
O471       Zr476   2.393       .  S
O471       Zr478   2.370       .  S
O472       Zr477   2.395       .  S
O472       Zr478   2.373       .  S
O472        H507   0.966       .  S
O473       Zr476   2.395       .  S
O473       Zr493   2.394       .  S
O473        H510   0.966       .  S
O474       Zr477   2.396       .  S
O474       Zr493   2.386       .  S
Zr475       O500   2.443       .  S
Zr475       O494   2.458       .  S
Zr475       O502   2.439       .  S
Zr475       O490   2.447       .  S
Zr475       O481   2.407       .  S
Zr475       O482   2.417       .  S
Zr475       O483   2.383       .  S
Zr475       O484   2.387       .  S
Zr476       O495   2.436       .  S
Zr476       O488   2.435       .  S
Zr476       O489   2.424       .  S
Zr476       O482   2.395       .  S
Zr476       O483   2.391       .  S
Zr477       O479   2.436       .  S
Zr477       O501   2.439       .  S
Zr477       O503   2.438       .  S
Zr477       O481   2.389       .  S
Zr477       O484   2.389       .  S
Zr478       O504   2.435       .  S
Zr478       O505   2.435       .  S
Zr478       O480   2.436       .  S
Zr478       O481   2.396       .  S
Zr478       O482   2.393       .  S
O479        H516   0.990       .  S
O480        H511   0.990       .  S
O480        H525   0.990       .  S
O482        H508   0.965       .  S
O483       Zr493   2.384       .  S
O484       Zr493   2.390       .  S
O484        H509   0.966       .  S
C485       C3380   1.465       .  S
C486       C3236   1.467       .  S
C487       C3185   1.471       .  S
O488        H524   0.990       .  S
O489        C491   1.281       .  A
O490        C491   1.286       .  A
C491       C3218   1.472       .  S
O492       Zr493   2.436       .  S
O492        H521   0.990       .  S
Zr493       O496   2.435       .  S
Zr493       O497   2.437       .  S
Zr493       O498   2.404       .  S
O494        C499   1.287       .  A
O495        H512   0.990       .  S
O495        H527   0.990       .  S
O496        H513   0.990       .  S
O497        H517   0.990       .  S
O497        H526   0.989       .  S
O498        C499   1.278       .  A
C499       C3200   1.474       .  S
O500        H519   0.991       .  S
O500        H523   0.991       .  S
O501        H515   0.990       .  S
O501        H522   0.990       .  S
O502        C506   1.283       .  A
O503        C506   1.283       .  A
O504        H514   0.990       .  S
O505        H518   0.990       .  S
C506       C3290   1.471       .  S
Zr529       O530   2.442       .  S
Zr529       O531   2.453       .  S
Zr529       O532   2.448       .  S
Zr529       O535   2.441       .  S
Zr529       O537   2.376       .  S
Zr529       O538   2.385       .  S
Zr529       O539   2.416       .  S
Zr529       O540   2.405       .  S
O530        H586   0.991       .  S
O530        H594   0.990       .  S
O531        C551   1.286       .  A
O532        C553   1.284       .  A
O533       Zr543   2.421       .  S
O533        C552   1.281       .  A
O534       Zr542   2.425       .  S
O534        C553   1.282       .  A
O535        C552   1.285       .  A
O536       Zr544   2.409       .  S
O536        C551   1.279       .  A
O537       Zr542   2.397       .  S
O537       Zr544   2.383       .  S
O538       Zr543   2.389       .  S
O538       Zr544   2.381       .  S
O538        H573   0.966       .  S
O539       Zr542   2.401       .  S
O539       Zr559   2.404       .  S
O539        H576   0.966       .  S
O540       Zr543   2.391       .  S
O540       Zr559   2.392       .  S
Zr541       O566   2.448       .  S
Zr541       O560   2.437       .  S
Zr541       O568   2.438       .  S
Zr541       O556   2.446       .  S
Zr541       O547   2.405       .  S
Zr541       O548   2.398       .  S
Zr541       O549   2.380       .  S
Zr541       O550   2.386       .  S
Zr542       O561   2.436       .  S
Zr542       O554   2.434       .  S
Zr542       O555   2.429       .  S
Zr542       O548   2.397       .  S
Zr542       O549   2.385       .  S
Zr543       O545   2.436       .  S
Zr543       O567   2.435       .  S
Zr543       O569   2.423       .  S
Zr543       O547   2.390       .  S
Zr543       O550   2.391       .  S
Zr544       O570   2.436       .  S
Zr544       O571   2.436       .  S
Zr544       O546   2.437       .  S
Zr544       O547   2.397       .  S
Zr544       O548   2.383       .  S
O545        H582   0.990       .  S
O546        H577   0.990       .  S
O546        H591   0.990       .  S
O548        H574   0.965       .  S
O549       Zr559   2.375       .  S
O550       Zr559   2.364       .  S
O550        H575   0.966       .  S
C551       C3203   1.475       .  S
C552       C3131   1.469       .  S
C553       C3167   1.471       .  S
O554        H590   0.990       .  S
O555        C557   1.285       .  A
O556        C557   1.286       .  A
C557       C3362   1.470       .  S
O558       Zr559   2.438       .  S
O558        H587   0.991       .  S
Zr559       O562   2.436       .  S
Zr559       O563   2.440       .  S
Zr559       O564   2.436       .  S
O560        C565   1.285       .  A
O561        H578   0.990       .  S
O561        H593   0.990       .  S
O562        H579   0.990       .  S
O563        H583   0.990       .  S
O563        H592   0.990       .  S
O564        C565   1.284       .  A
C565       C3146   1.474       .  S
O566        H585   0.991       .  S
O566        H589   0.990       .  S
O567        H581   0.990       .  S
O567        H588   0.990       .  S
O568        C572   1.284       .  A
O569        C572   1.282       .  A
O570        H580   0.990       .  S
O571        H584   0.990       .  S
C572       C3563   1.461       .  S
Zr595       O596   2.442       .  S
Zr595       O597   2.446       .  S
Zr595       O598   2.440       .  S
Zr595       O601   2.433       .  S
Zr595       O603   2.381       .  S
Zr595       O604   2.386   1_545  S
Zr595       O605   2.407       .  S
Zr595       O606   2.406       .  S
O596        H652   0.990       .  S
O596        H660   0.991       .  S
O597        C617   1.285       .  A
O598        C619   1.283       .  A
O599       Zr609   2.422       .  S
O599        C618   1.282   1_565  A
O600       Zr608   2.427       .  S
O600        C619   1.282       .  A
O601        C618   1.283       .  A
O602       Zr610   2.401       .  S
O602        C617   1.277   1_565  A
O603       Zr608   2.396       .  S
O603       Zr610   2.385   1_545  S
O604       Zr609   2.385       .  S
O604       Zr610   2.380       .  S
O604        H639   0.966       .  S
O605       Zr608   2.392       .  S
O605       Zr625   2.397       .  S
O605        H642   0.966       .  S
O606       Zr609   2.389   1_545  S
O606       Zr625   2.393       .  S
Zr607       O632   2.440       .  S
Zr607       O626   2.427   1_554  S
Zr607       O634   2.455       .  S
Zr607       O622   2.437       .  S
Zr607       O613   2.404       .  S
Zr607       O614   2.403       .  S
Zr607       O615   2.382   1_565  S
Zr607       O616   2.384       .  S
Zr608       O627   2.436       .  S
Zr608       O620   2.435       .  S
Zr608       O621   2.414       .  S
Zr608       O614   2.400   1_545  S
Zr608       O615   2.385       .  S
Zr609       O611   2.437       .  S
Zr609       O633   2.434       .  S
Zr609       O635   2.413       .  S
Zr609       O613   2.392       .  S
Zr609       O616   2.393       .  S
Zr610       O636   2.436       .  S
Zr610       O637   2.436       .  S
Zr610       O612   2.436       .  S
Zr610       O613   2.396       .  S
Zr610       O614   2.385       .  S
O611        H648   0.990       .  S
O612        H643   0.991       .  S
O612        H657   0.990   1_565  S
O614        H640   0.965       .  S
O615       Zr625   2.372       .  S
O616       Zr625   2.367   1_565  S
O616        H641   0.965       .  S
C617       C3056   1.469       .  S
C618       C3074   1.467       .  S
C619       C3164   1.471       .  S
O620        H656   0.990       .  S
O621        C623   1.282       .  A
O622        C623   1.285   1_565  A
C623       C3092   1.462   1_554  S
O624       Zr625   2.438       .  S
O624        H653   0.990       .  S
Zr625       O628   2.439       .  S
Zr625       O629   2.439       .  S
Zr625       O630   2.435       .  S
O626        C631   1.282   1_565  A
O627        H644   0.990       .  S
O627        H659   0.990       .  S
O628        H645   0.990       .  S
O629        H649   0.990       .  S
O629        H658   0.990       .  S
O630        C631   1.283   1_554  A
C631       C3113   1.467       .  S
O632        H651   0.990   1_554  S
O632        H655   0.990       .  S
O633        H647   0.990       .  S
O633        H654   0.990       .  S
O634        C638   1.287       .  A
O635        C638   1.280       .  A
O636        H646   0.990       .  S
O637        H650   0.990       .  S
C638       C3491   1.467       .  S
Zr661       O662   2.442       .  S
Zr661       O663   2.459       .  S
Zr661       O664   2.446       .  S
Zr661       O667   2.428       .  S
Zr661       O669   2.376       .  S
Zr661       O670   2.384       .  S
Zr661       O671   2.414       .  S
Zr661       O672   2.409       .  S
O662        H718   0.990       .  S
O662        H726   0.991       .  S
O663        C683   1.287       .  A
O664        C685   1.283       .  A
O665       Zr675   2.429       .  S
O665        C684   1.284       .  A
O666       Zr674   2.442       .  S
O666        C685   1.285       .  A
O667        C684   1.282       .  A
O668       Zr676   2.408       .  S
O668        C683   1.279       .  A
O669       Zr674   2.396       .  S
O669       Zr676   2.388       .  S
O670       Zr675   2.393       .  S
O670       Zr676   2.379       .  S
O670        H705   0.966       .  S
O671       Zr674   2.399       .  S
O671       Zr691   2.403       .  S
O671        H708   0.966       .  S
O672       Zr675   2.389       .  S
O672       Zr691   2.398       .  S
Zr673       O698   2.441       .  S
Zr673       O692   2.434       .  S
Zr673       O700   2.451       .  S
Zr673       O688   2.436       .  S
Zr673       O679   2.401       .  S
Zr673       O680   2.406       .  S
Zr673       O681   2.385       .  S
Zr673       O682   2.383       .  S
Zr674       O693   2.438       .  S
Zr674       O686   2.434       .  S
Zr674       O687   2.422       .  S
Zr674       O680   2.406       .  S
Zr674       O681   2.396       .  S
Zr675       O677   2.436       .  S
Zr675       O699   2.436       .  S
Zr675       O701   2.423       .  S
Zr675       O679   2.392       .  S
Zr675       O682   2.393       .  S
Zr676       O702   2.435       .  S
Zr676       O703   2.436       .  S
Zr676       O678   2.437       .  S
Zr676       O679   2.394       .  S
Zr676       O680   2.386       .  S
O677        H714   0.990       .  S
O678        H709   0.990       .  S
O678        H723   0.990       .  S
O680        H706   0.965       .  S
O681       Zr691   2.369       .  S
O682       Zr691   2.367       .  S
O682        H707   0.966       .  S
C683       C3002   1.478       .  S
C684       C3239   1.469       .  S
C685       C3038   1.478       .  S
O686        H722   0.990       .  S
O687        C689   1.283       .  A
O688        C689   1.284       .  A
C689       C3020   1.463       .  S
O690       Zr691   2.438       .  S
O690        H719   0.991       .  S
Zr691       O694   2.438       .  S
Zr691       O695   2.439       .  S
Zr691       O696   2.444       .  S
O692        C697   1.283       .  A
O693        H710   0.990       .  S
O693        H725   0.990       .  S
O694        H711   0.990       .  S
O695        H715   0.990       .  S
O695        H724   0.990       .  S
O696        C697   1.285       .  A
C697       C3149   1.476       .  S
O698        H717   0.990       .  S
O698        H721   0.990       .  S
O699        H713   0.990       .  S
O699        H720   0.990       .  S
O700        C704   1.287       .  A
O701        C704   1.283       .  A
O702        H712   0.990       .  S
O703        H716   0.990       .  S
C704       C3743   1.470       .  S
Zr727       O728   2.442       .  S
Zr727       O729   2.456       .  S
Zr727       O730   2.454       .  S
Zr727       O733   2.442       .  S
Zr727       O735   2.380       .  S
Zr727       O736   2.385   1_545  S
Zr727       O737   2.414       .  S
Zr727       O738   2.410       .  S
O728        H784   0.991       .  S
O728        H792   0.990       .  S
O729        C749   1.286       .  A
O730        C751   1.285       .  A
O731       Zr741   2.422       .  S
O731        C750   1.282       .  A
O732       Zr740   2.429       .  S
O732        C751   1.282       .  A
O733        C750   1.285   1_545  A
O734       Zr742   2.406       .  S
O734        C749   1.278   1_565  A
O735       Zr740   2.398       .  S
O735       Zr742   2.389   1_545  S
O736       Zr741   2.392       .  S
O736       Zr742   2.381       .  S
O736        H771   0.966       .  S
O737       Zr740   2.397       .  S
O737       Zr757   2.396       .  S
O737        H774   0.965       .  S
O738       Zr741   2.391   1_545  S
O738       Zr757   2.396       .  S
Zr739       O764   2.441       .  S
Zr739       O758   2.430       .  S
Zr739       O766   2.444       .  S
Zr739       O754   2.442       .  S
Zr739       O745   2.404       .  S
Zr739       O746   2.407       .  S
Zr739       O747   2.380   1_565  S
Zr739       O748   2.387       .  S
Zr740       O759   2.436       .  S
Zr740       O752   2.437       .  S
Zr740       O753   2.415       .  S
Zr740       O746   2.405   1_545  S
Zr740       O747   2.388       .  S
Zr741       O743   2.436       .  S
Zr741       O765   2.435       .  S
Zr741       O767   2.422       .  S
Zr741       O745   2.391       .  S
Zr741       O748   2.390       .  S
Zr742       O768   2.439       .  S
Zr742       O769   2.436       .  S
Zr742       O744   2.437       .  S
Zr742       O745   2.392       .  S
Zr742       O746   2.392       .  S
O743        H780   0.990       .  S
O744        H775   0.991       .  S
O744        H789   0.990   1_565  S
O746        H772   0.966       .  S
O747       Zr757   2.374       .  S
O748       Zr757   2.367   1_565  S
O748        H773   0.966       .  S
C749       C2948   1.476       .  S
C750       C2987   1.472       .  S
C751       C3041   1.474       .  S
O752        H788   0.990       .  S
O753        C755   1.281       .  A
O754        C755   1.284   1_565  A
C755       C2966   1.465       .  S
O756       Zr757   2.438       .  S
O756        H785   0.990       .  S
Zr757       O760   2.437       .  S
Zr757       O761   2.439       .  S
Zr757       O762   2.431       .  S
O758        C763   1.283       .  A
O759        H776   0.990       .  S
O759        H791   0.990       .  S
O760        H777   0.990       .  S
O761        H781   0.990       .  S
O761        H790   0.989       .  S
O762        C763   1.282   1_545  A
C763       C3110   1.469       .  S
O764        H783   0.990       .  S
O764        H787   0.990       .  S
O765        H779   0.990       .  S
O765        H786   0.990       .  S
O766        C770   1.286       .  A
O767        C770   1.282       .  A
O768        H778   0.990       .  S
O769        H782   0.990       .  S
C770       C3653   1.466       .  S
Zr793       O794   2.441       .  S
Zr793       O795   2.443       .  S
Zr793       O796   2.438       .  S
Zr793       O799   2.437       .  S
Zr793       O801   2.383       .  S
Zr793       O802   2.383   1_545  S
Zr793       O803   2.410       .  S
Zr793       O804   2.396       .  S
O794        H850   0.990       .  S
O794        H858   0.990       .  S
O795        C815   1.285       .  A
O796        C817   1.283       .  A
O797       Zr807   2.421       .  S
O797        C816   1.283   1_565  A
O798       Zr806   2.421       .  S
O798        C817   1.282       .  A
O799        C816   1.285       .  A
O800       Zr808   2.432   1_545  S
O800        C815   1.283       .  A
O801       Zr806   2.393       .  S
O801       Zr808   2.369   1_545  S
O802       Zr807   2.387       .  S
O802       Zr808   2.373       .  S
O802        H837   0.966       .  S
O803       Zr806   2.399       .  S
O803       Zr823   2.399       .  S
O803        H840   0.966       .  S
O804       Zr807   2.394   1_545  S
O804       Zr823   2.392       .  S
Zr805       O830   2.441       .  S
Zr805       O824   2.446       .  S
Zr805       O832   2.442       .  S
Zr805       O820   2.433   1_565  S
Zr805       O811   2.407       .  S
Zr805       O812   2.414   1_565  S
Zr805       O813   2.382   1_565  S
Zr805       O814   2.381       .  S
Zr806       O825   2.436       .  S
Zr806       O818   2.434       .  S
Zr806       O819   2.431       .  S
Zr806       O812   2.391       .  S
Zr806       O813   2.391       .  S
Zr807       O809   2.435       .  S
Zr807       O831   2.437       .  S
Zr807       O833   2.428       .  S
Zr807       O811   2.391       .  S
Zr807       O814   2.395       .  S
Zr808       O834   2.434       .  S
Zr808       O835   2.437       .  S
Zr808       O810   2.437   1_565  S
Zr808       O811   2.401       .  S
Zr808       O812   2.388   1_565  S
O809        H846   0.990       .  S
O810        H841   0.990   1_545  S
O810        H855   0.990       .  S
O812        H838   0.964       .  S
O813       Zr823   2.382       .  S
O814       Zr823   2.388   1_565  S
O814        H839   0.966       .  S
C815       C2912   1.475       .  S
C816       C3077   1.468       .  S
C817       C2876   1.463       .  S
O818        H854   0.990       .  S
O819        C821   1.283       .  A
O820        C821   1.283       .  A
C821       C2894   1.469       .  S
O822       Zr823   2.441       .  S
O822        H851   0.991       .  S
Zr823       O826   2.438       .  S
Zr823       O827   2.439       .  S
Zr823       O828   2.415       .  S
O824        C829   1.285   1_565  A
O825        H842   0.990       .  S
O825        H857   0.990       .  S
O826        H843   0.990       .  S
O827        H847   0.990       .  S
O827        H856   0.990       .  S
O828        C829   1.280       .  A
C829       C2951   1.474       .  S
O830        H849   0.990       .  S
O830        H853   0.990       .  S
O831        H845   0.990       .  S
O831        H852   0.990       .  S
O832        C836   1.284       .  A
O833        C836   1.282       .  A
O834        H844   0.990       .  S
O835        H848   0.990       .  S
C836       C2930   1.474       .  S
Zr859       O860   2.441       .  S
Zr859       O861   2.422       .  S
Zr859       O862   2.458       .  S
Zr859       O865   2.438       .  S
Zr859       O867   2.383       .  S
Zr859       O868   2.392       .  S
Zr859       O869   2.407       .  S
Zr859       O870   2.401       .  S
O860        H916   0.990       .  S
O860        H924   0.990       .  S
O861        C881   1.280       .  A
O862        C883   1.286       .  A
O863       Zr873   2.421       .  S
O863        C882   1.282       .  A
O864       Zr872   2.427       .  S
O864        C883   1.282       .  A
O865        C882   1.284       .  A
O866       Zr874   2.425       .  S
O866        C881   1.281       .  A
O867       Zr872   2.395       .  S
O867       Zr874   2.376       .  S
O868       Zr873   2.392       .  S
O868       Zr874   2.372       .  S
O868        H903   0.966       .  S
O869       Zr872   2.399       .  S
O869       Zr889   2.396       .  S
O869        H906   0.966       .  S
O870       Zr873   2.396       .  S
O870       Zr889   2.389       .  S
Zr871       O896   2.441       .  S
Zr871       O890   2.456       .  S
Zr871       O898   2.447       .  S
Zr871       O886   2.430       .  S
Zr871       O877   2.412       .  S
Zr871       O878   2.418       .  S
Zr871       O879   2.382       .  S
Zr871       O880   2.380       .  S
Zr872       O891   2.435       .  S
Zr872       O884   2.434       .  S
Zr872       O885   2.433       .  S
Zr872       O878   2.395       .  S
Zr872       O879   2.393       .  S
Zr873       O875   2.436       .  S
Zr873       O897   2.439       .  S
Zr873       O899   2.432       .  S
Zr873       O877   2.388       .  S
Zr873       O880   2.393       .  S
Zr874       O900   2.435       .  S
Zr874       O901   2.436       .  S
Zr874       O876   2.435       .  S
Zr874       O877   2.400       .  S
Zr874       O878   2.389       .  S
O875        H912   0.990       .  S
O876        H907   0.990       .  S
O876        H921   0.990       .  S
O878        H904   0.965       .  S
O879       Zr889   2.383       .  S
O880       Zr889   2.386       .  S
O880        H905   0.966       .  S
C881       C2858   1.466       .  S
C882       C3686   1.469       .  S
C883       C2822   1.474       .  S
O884        H920   0.990       .  S
O885        C887   1.284       .  A
O886        C887   1.284       .  A
C887       C2843   1.469       .  S
O888       Zr889   2.439       .  S
O888        H917   0.990       .  S
Zr889       O892   2.436       .  S
Zr889       O893   2.441       .  S
Zr889       O894   2.405       .  S
O890        C895   1.287       .  A
O891        H908   0.990       .  S
O891        H923   0.990       .  S
O892        H909   0.990       .  S
O893        H913   0.990       .  S
O893        H922   0.990       .  S
O894        C895   1.279       .  A
C895       C3509   1.476       .  S
O896        H915   0.990       .  S
O896        H919   0.990       .  S
O897        H911   0.990       .  S
O897        H918   0.990       .  S
O898        C902   1.284       .  A
O899        C902   1.283       .  A
O900        H910   0.990       .  S
O901        H914   0.990       .  S
C902       C2933   1.475       .  S
Zr925       O926   2.441       .  S
Zr925       O927   2.437       .  S
Zr925       O928   2.450       .  S
Zr925       O931   2.436       .  S
Zr925       O933   2.379   1_554  S
Zr925       O934   2.391   1_545  S
Zr925       O935   2.404   1_554  S
Zr925       O936   2.395   1_554  S
O926        H982   0.990       .  S
O926        H990   0.991       .  S
O927        C947   1.283       .  A
O928        C949   1.285   1_554  A
O929       Zr939   2.411   1_554  S
O929        C948   1.281   1_565  A
O930       Zr938   2.413       .  S
O930        C949   1.280       .  A
O931        C948   1.284       .  A
O932       Zr940   2.437   1_544  S
O932        C947   1.283       .  A
O933       Zr938   2.393       .  S
O933       Zr940   2.369   1_545  S
O934       Zr939   2.393   1_554  S
O934       Zr940   2.371   1_554  S
O934        H969   0.966       .  S
O935       Zr938   2.396       .  S
O935       Zr955   2.394       .  S
O935        H972   0.965       .  S
O936       Zr939   2.392   1_545  S
O936       Zr955   2.383       .  S
Zr937       O962   2.441       .  S
Zr937       O956   2.459       .  S
Zr937       O964   2.440       .  S
Zr937       O952   2.429       .  S
Zr937       O943   2.414       .  S
Zr937       O944   2.416   1_565  S
Zr937       O945   2.382   1_565  S
Zr937       O946   2.376       .  S
Zr938       O957   2.435       .  S
Zr938       O950   2.435       .  S
Zr938       O951   2.421       .  S
Zr938       O944   2.392       .  S
Zr938       O945   2.389       .  S
Zr939       O941   2.436       .  S
Zr939       O963   2.439   1_556  S
Zr939       O965   2.426       .  S
Zr939       O943   2.391       .  S
Zr939       O946   2.391       .  S
Zr940       O966   2.435   1_556  S
Zr940       O967   2.435       .  S
Zr940       O942   2.437       .  S
Zr940       O943   2.410       .  S
Zr940       O944   2.388   1_565  S
O941        H978   0.990       .  S
O942        H973   0.990   1_556  S
O942        H987   0.990   1_565  S
O944        H970   0.964   1_545  S
O945       Zr955   2.380       .  S
O946       Zr955   2.386   1_565  S
O946        H971   0.966       .  S
C947       C2915   1.474       .  S
C948       C2786   1.460       .  S
C949       C2753   1.466   1_556  S
O950        H986   0.990       .  S
O951        C953   1.281       .  A
O952        C953   1.283   1_565  A
C953       C2969   1.463       .  S
O954       Zr955   2.435       .  S
O954        H983   0.990       .  S
Zr955       O958   2.435       .  S
Zr955       O959   2.440       .  S
Zr955       O960   2.400       .  S
O956        C961   1.287   1_565  A
O957        H974   0.990       .  S
O957        H989   0.990       .  S
O958        H975   0.990       .  S
O959        H979   0.990       .  S
O959        H988   0.989       .  S
O960        C961   1.277       .  A
C961       C2771   1.476       .  S
O962        H981   0.990       .  S
O962        H985   0.990       .  S
O963        H977   0.990       .  S
O963        H984   0.990       .  S
O964        C968   1.284       .  A
O965        C968   1.282       .  A
O966        H976   0.990       .  S
O967        H980   0.990       .  S
C968       C2804   1.472       .  S
Zr991       O992   2.440       .  S
Zr991       O993   2.431       .  S
Zr991       O994   2.464       .  S
Zr991       O997   2.444       .  S
Zr991       O999   2.385       .  S
Zr991      O1000   2.391       .  S
Zr991      O1001   2.409       .  S
Zr991      O1002   2.397       .  S
O992       H1048   0.990       .  S
O992       H1056   0.990       .  S
O993       C1013   1.282       .  A
O994       C1015   1.287       .  A
O995      Zr1005   2.414       .  S
O995       C1014   1.280       .  A
O996      Zr1004   2.418       .  S
O996       C1015   1.280       .  A
O997       C1014   1.286       .  A
O998      Zr1006   2.429       .  S
O998       C1013   1.282       .  A
O999      Zr1004   2.397       .  S
O999      Zr1006   2.374       .  S
O1000     Zr1005   2.390       .  S
O1000     Zr1006   2.369       .  S
O1000      H1035   0.966       .  S
O1001     Zr1004   2.401       .  S
O1001     Zr1021   2.400       .  S
O1001      H1038   0.965       .  S
O1002     Zr1005   2.390       .  S
O1002     Zr1021   2.385       .  S
Zr1003     O1028   2.442       .  S
Zr1003     O1022   2.461       .  S
Zr1003     O1030   2.440       .  S
Zr1003     O1018   2.430       .  S
Zr1003     O1009   2.414       .  S
Zr1003     O1010   2.418       .  S
Zr1003     O1011   2.383       .  S
Zr1003     O1012   2.374       .  S
Zr1004     O1023   2.436       .  S
Zr1004     O1016   2.435       .  S
Zr1004     O1017   2.438       .  S
Zr1004     O1010   2.394       .  S
Zr1004     O1011   2.394       .  S
Zr1005     O1007   2.434       .  S
Zr1005     O1029   2.437       .  S
Zr1005     O1031   2.418       .  S
Zr1005     O1009   2.393       .  S
Zr1005     O1012   2.389       .  S
Zr1006     O1032   2.435       .  S
Zr1006     O1033   2.436       .  S
Zr1006     O1008   2.437       .  S
Zr1006     O1009   2.405       .  S
Zr1006     O1010   2.389       .  S
O1007      H1044   0.990       .  S
O1008      H1039   0.990       .  S
O1008      H1053   0.990       .  S
O1010      H1036   0.964       .  S
O1011     Zr1021   2.387       .  S
O1012     Zr1021   2.384       .  S
O1012      H1037   0.966       .  S
C1013      C2861   1.466       .  S
C1014      C2732   1.466       .  S
C1015      C2696   1.475       .  S
O1016      H1052   0.990       .  S
O1017      C1019   1.284       .  A
O1018      C1019   1.283       .  A
C1019      C3527   1.469       .  S
O1020     Zr1021   2.439       .  S
O1020      H1049   0.990       .  S
Zr1021     O1024   2.436       .  S
Zr1021     O1025   2.443       .  S
Zr1021     O1026   2.409       .  S
O1022      C1027   1.288       .  A
O1023      H1040   0.990       .  S
O1023      H1055   0.990       .  S
O1024      H1041   0.990       .  S
O1025      H1045   0.990       .  S
O1025      H1054   0.989       .  S
O1026      C1027   1.279       .  A
C1027      C2714   1.479       .  S
O1028      H1047   0.991       .  S
O1028      H1051   0.990       .  S
O1029      H1043   0.990       .  S
O1029      H1050   0.990       .  S
O1030      C1034   1.283       .  A
O1031      C1034   1.280       .  A
O1032      H1042   0.990       .  S
O1033      H1046   0.990       .  S
C1034      C2807   1.469       .  S
Zr1057     O1058   2.441       .  S
Zr1057     O1059   2.458       .  S
Zr1057     O1060   2.446       .  S
Zr1057     O1063   2.431       .  S
Zr1057     O1065   2.377       .  S
Zr1057     O1066   2.385       .  S
Zr1057     O1067   2.413       .  S
Zr1057     O1068   2.408       .  S
O1058      H1114   0.990       .  S
O1058      H1122   0.990       .  S
O1059      C1079   1.287       .  A
O1060      C1081   1.284       .  A
O1061     Zr1071   2.417       .  S
O1061      C1080   1.282       .  A
O1062     Zr1070   2.437       .  S
O1062      C1081   1.284       .  A
O1063      C1080   1.283       .  A
O1064     Zr1072   2.408       .  S
O1064      C1079   1.278       .  A
O1065     Zr1070   2.397       .  S
O1065     Zr1072   2.387       .  S
O1066     Zr1071   2.393       .  S
O1066     Zr1072   2.377       .  S
O1066      H1101   0.966       .  S
O1067     Zr1070   2.394       .  S
O1067     Zr1087   2.399       .  S
O1067      H1104   0.966       .  S
O1068     Zr1071   2.389       .  S
O1068     Zr1087   2.396       .  S
Zr1069     O1094   2.439       .  S
Zr1069     O1088   2.433       .  S
Zr1069     O1096   2.456       .  S
Zr1069     O1084   2.449       .  S
Zr1069     O1075   2.402       .  S
Zr1069     O1076   2.408       .  S
Zr1069     O1077   2.385       .  S
Zr1069     O1078   2.381       .  S
Zr1070     O1089   2.437       .  S
Zr1070     O1082   2.435       .  S
Zr1070     O1083   2.414       .  S
Zr1070     O1076   2.407       .  S
Zr1070     O1077   2.391       .  S
Zr1071     O1073   2.436       .  S
Zr1071     O1095   2.434       .  S
Zr1071     O1097   2.426       .  S
Zr1071     O1075   2.391       .  S
Zr1071     O1078   2.388       .  S
Zr1072     O1098   2.437       .  S
Zr1072     O1099   2.436       .  S
Zr1072     O1074   2.437       .  S
Zr1072     O1075   2.396       .  S
Zr1072     O1076   2.386       .  S
O1073      H1110   0.990       .  S
O1074      H1105   0.990       .  S
O1074      H1119   0.990       .  S
O1076      H1102   0.966       .  S
O1077     Zr1087   2.373       .  S
O1078     Zr1087   2.366       .  S
O1078      H1103   0.965       .  S
C1079      C2717   1.478       .  S
C1080      C2645   1.467       .  S
C1081      C2678   1.475       .  S
O1082      H1118   0.990       .  S
O1083      C1085   1.281       .  A
O1084      C1085   1.287       .  A
C1085      C2840   1.465       .  S
O1086     Zr1087   2.439       .  S
O1086      H1115   0.990       .  S
Zr1087     O1090   2.438       .  S
Zr1087     O1091   2.438       .  S
Zr1087     O1092   2.433       .  S
O1088      C1093   1.284       .  A
O1089      H1106   0.990       .  S
O1089      H1121   0.990       .  S
O1090      H1107   0.990       .  S
O1091      H1111   0.990       .  S
O1091      H1120   0.990       .  S
O1092      C1093   1.283       .  A
C1093      C2663   1.472       .  S
O1094      H1113   0.990       .  S
O1094      H1117   0.990       .  S
O1095      H1109   0.990       .  S
O1095      H1116   0.990       .  S
O1096      C1100   1.288       .  A
O1097      C1100   1.283       .  A
O1098      H1108   0.990       .  S
O1099      H1112   0.990       .  S
C1100      C2627   1.472       .  S
Zr1123     O1124   2.441       .  S
Zr1123     O1125   2.449       .  S
Zr1123     O1126   2.448       .  S
Zr1123     O1129   2.433       .  S
Zr1123     O1131   2.382       .  S
Zr1123     O1132   2.388       .  S
Zr1123     O1133   2.410       .  S
Zr1123     O1134   2.402       .  S
O1124      H1180   0.990       .  S
O1124      H1188   0.991       .  S
O1125      C1145   1.285       .  A
O1126      C1147   1.284       .  A
O1127     Zr1137   2.426       .  S
O1127      C1146   1.282       .  A
O1128     Zr1136   2.434       .  S
O1128      C1147   1.283       .  A
O1129      C1146   1.284       .  A
O1130     Zr1138   2.406       .  S
O1130      C1145   1.278       .  A
O1131     Zr1136   2.400       .  S
O1131     Zr1138   2.391       .  S
O1132     Zr1137   2.393       .  S
O1132     Zr1138   2.378       .  S
O1132      H1167   0.966       .  S
O1133     Zr1136   2.396       .  S
O1133     Zr1153   2.397       .  S
O1133      H1170   0.966       .  S
O1134     Zr1137   2.388       .  S
O1134     Zr1153   2.388       .  S
Zr1135     O1160   2.441       .  S
Zr1135     O1154   2.429   1_554  S
Zr1135     O1162   2.445       .  S
Zr1135     O1150   2.447       .  S
Zr1135     O1141   2.403       .  S
Zr1135     O1142   2.405       .  S
Zr1135     O1143   2.383       .  S
Zr1135     O1144   2.386       .  S
Zr1136     O1155   2.438       .  S
Zr1136     O1148   2.437       .  S
Zr1136     O1149   2.426       .  S
Zr1136     O1142   2.404       .  S
Zr1136     O1143   2.392       .  S
Zr1137     O1139   2.436       .  S
Zr1137     O1161   2.437       .  S
Zr1137     O1163   2.428       .  S
Zr1137     O1141   2.392       .  S
Zr1137     O1144   2.392       .  S
Zr1138     O1164   2.436       .  S
Zr1138     O1165   2.437       .  S
Zr1138     O1140   2.436       .  S
Zr1138     O1141   2.390       .  S
Zr1138     O1142   2.387       .  S
O1139      H1176   0.990       .  S
O1140      H1171   0.991       .  S
O1140      H1185   0.990       .  S
O1142      H1168   0.965       .  S
O1143     Zr1153   2.379       .  S
O1144     Zr1153   2.371       .  S
O1144      H1169   0.966       .  S
C1145      C2570   1.473       .  S
C1146      C3434   1.468       .  S
C1147      C2681   1.475       .  S
O1148      H1184   0.990       .  S
O1149      C1151   1.282       .  A
O1150      C1151   1.285       .  A
C1151      C2591   1.471   1_554  S
O1152     Zr1153   2.439       .  S
O1152      H1181   0.990       .  S
Zr1153     O1156   2.437       .  S
Zr1153     O1157   2.439       .  S
Zr1153     O1158   2.426       .  S
O1154      C1159   1.282       .  A
O1155      H1172   0.990       .  S
O1155      H1187   0.990       .  S
O1156      H1173   0.990       .  S
O1157      H1177   0.990       .  S
O1157      H1186   0.990       .  S
O1158      C1159   1.282   1_554  A
C1159      C2606   1.466       .  S
O1160      H1179   0.990       .  S
O1160      H1183   0.990   1_554  S
O1161      H1175   0.990       .  S
O1161      H1182   0.990       .  S
O1162      C1166   1.285       .  A
O1163      C1166   1.283       .  A
O1164      H1174   0.990       .  S
O1165      H1178   0.990       .  S
C1166      C2552   1.468       .  S
Zr1189     O1190   2.442       .  S
Zr1189     O1191   2.456       .  S
Zr1189     O1192   2.448       .  S
Zr1189     O1195   2.435       .  S
Zr1189     O1197   2.375       .  S
Zr1189     O1198   2.387       .  S
Zr1189     O1199   2.414       .  S
Zr1189     O1200   2.407       .  S
O1190      H1246   0.990       .  S
O1190      H1254   0.990       .  S
O1191      C1211   1.287       .  A
O1192      C1213   1.285       .  A
O1193     Zr1203   2.411       .  S
O1193      C1212   1.280       .  A
O1194     Zr1202   2.433       .  S
O1194      C1213   1.283       .  A
O1195      C1212   1.284       .  A
O1196     Zr1204   2.407   1_455  S
O1196      C1211   1.279   1_455  A
O1197     Zr1202   2.395       .  S
O1197     Zr1204   2.384       .  S
O1198     Zr1203   2.395       .  S
O1198     Zr1204   2.379       .  S
O1198      H1233   0.966       .  S
O1199     Zr1202   2.398       .  S
O1199     Zr1219   2.402       .  S
O1199      H1236   0.966       .  S
O1200     Zr1203   2.390       .  S
O1200     Zr1219   2.391       .  S
Zr1201     O1226   2.440       .  S
Zr1201     O1220   2.425       .  S
Zr1201     O1228   2.442       .  S
Zr1201     O1216   2.440       .  S
Zr1201     O1207   2.401       .  S
Zr1201     O1208   2.404       .  S
Zr1201     O1209   2.386       .  S
Zr1201     O1210   2.383       .  S
Zr1202     O1221   2.437       .  S
Zr1202     O1214   2.436   1_655  S
Zr1202     O1215   2.417   1_655  S
Zr1202     O1208   2.407       .  S
Zr1202     O1209   2.392       .  S
Zr1203     O1205   2.436       .  S
Zr1203     O1227   2.435       .  S
Zr1203     O1229   2.430       .  S
Zr1203     O1207   2.388       .  S
Zr1203     O1210   2.387       .  S
Zr1204     O1230   2.438       .  S
Zr1204     O1231   2.436   1_655  S
Zr1204     O1206   2.436   1_655  S
Zr1204     O1207   2.394       .  S
Zr1204     O1208   2.385       .  S
O1205      H1242   0.990       .  S
O1206      H1237   0.990       .  S
O1206      H1251   0.990       .  S
O1208      H1234   0.965   1_655  S
O1209     Zr1219   2.376       .  S
O1210     Zr1219   2.368       .  S
O1210      H1235   0.966       .  S
C1211      C3416   1.476   1_655  S
C1212      C2516   1.464       .  S
C1213      C2537   1.477       .  S
O1214      H1250   0.990       .  S
O1215      C1217   1.281       .  A
O1216      C1217   1.284   1_655  A
C1217      C3275   1.463       .  S
O1218     Zr1219   2.438       .  S
O1218      H1247   0.991       .  S
Zr1219     O1222   2.437       .  S
Zr1219     O1223   2.441       .  S
Zr1219     O1224   2.430       .  S
O1220      C1225   1.281       .  A
O1221      H1238   0.990   1_655  S
O1221      H1253   0.990       .  S
O1222      H1239   0.990       .  S
O1223      H1243   0.990       .  S
O1223      H1252   0.990       .  S
O1224      C1225   1.282       .  A
C1225      C2609   1.465       .  S
O1226      H1245   0.990   1_655  S
O1226      H1249   0.990       .  S
O1227      H1241   0.990       .  S
O1227      H1248   0.990       .  S
O1228      C1232   1.285       .  A
O1229      C1232   1.283       .  A
O1230      H1240   0.990       .  S
O1231      H1244   0.990       .  S
C1232      C2498   1.470       .  S
Zr1255     O1256   2.442       .  S
Zr1255     O1257   2.450       .  S
Zr1255     O1258   2.452       .  S
Zr1255     O1261   2.439       .  S
Zr1255     O1263   2.383       .  S
Zr1255     O1264   2.390       .  S
Zr1255     O1265   2.414       .  S
Zr1255     O1266   2.409       .  S
O1256      H1312   0.990       .  S
O1256      H1320   0.990       .  S
O1257      C1277   1.286       .  A
O1258      C1279   1.285       .  A
O1259     Zr1269   2.416       .  S
O1259      C1278   1.280       .  A
O1260     Zr1268   2.442       .  S
O1260      C1279   1.285       .  A
O1261      C1278   1.285       .  A
O1262     Zr1270   2.402   1_455  S
O1262      C1277   1.277   1_455  A
O1263     Zr1268   2.393       .  S
O1263     Zr1270   2.386       .  S
O1264     Zr1269   2.392       .  S
O1264     Zr1270   2.381       .  S
O1264      H1299   0.966       .  S
O1265     Zr1268   2.401       .  S
O1265     Zr1285   2.396       .  S
O1265      H1302   0.965       .  S
O1266     Zr1269   2.388       .  S
O1266     Zr1285   2.396       .  S
Zr1267     O1292   2.440       .  S
Zr1267     O1286   2.430       .  S
Zr1267     O1294   2.464       .  S
Zr1267     O1282   2.449   1_655  S
Zr1267     O1273   2.403       .  S
Zr1267     O1274   2.406       .  S
Zr1267     O1275   2.386       .  S
Zr1267     O1276   2.387       .  S
Zr1268     O1287   2.437       .  S
Zr1268     O1280   2.434   1_655  S
Zr1268     O1281   2.429   1_655  S
Zr1268     O1274   2.401       .  S
Zr1268     O1275   2.393       .  S
Zr1269     O1271   2.436       .  S
Zr1269     O1293   2.437       .  S
Zr1269     O1295   2.415       .  S
Zr1269     O1273   2.389       .  S
Zr1269     O1276   2.390       .  S
Zr1270     O1296   2.435       .  S
Zr1270     O1297   2.435   1_655  S
Zr1270     O1272   2.437   1_655  S
Zr1270     O1273   2.394       .  S
Zr1270     O1274   2.384       .  S
O1271      H1308   0.991       .  S
O1272      H1303   0.990       .  S
O1272      H1317   0.989       .  S
O1274      H1300   0.965   1_655  S
O1275     Zr1285   2.371       .  S
O1276     Zr1285   2.371       .  S
O1276      H1301   0.966       .  S
C1277      C2462   1.472   1_655  S
C1278      C2735   1.470       .  S
C1279      C2534   1.479       .  S
O1280      H1316   0.990       .  S
O1281      C1283   1.284       .  A
O1282      C1283   1.287       .  A
C1283      C2480   1.473       .  S
O1284     Zr1285   2.439       .  S
O1284      H1313   0.990       .  S
Zr1285     O1288   2.438       .  S
Zr1285     O1289   2.439       .  S
Zr1285     O1290   2.437       .  S
O1286      C1291   1.283       .  A
O1287      H1304   0.990   1_655  S
O1287      H1319   0.990       .  S
O1288      H1305   0.990       .  S
O1289      H1309   0.990       .  S
O1289      H1318   0.990       .  S
O1290      C1291   1.284       .  A
C1291      C2660   1.468       .  S
O1292      H1311   0.990   1_655  S
O1292      H1315   0.990       .  S
O1293      H1307   0.990       .  S
O1293      H1314   0.990       .  S
O1294      C1298   1.290       .  A
O1295      C1298   1.280       .  A
O1296      H1306   0.990   1_655  S
O1297      H1310   0.990       .  S
C1298      C2444   1.474       .  S
Zr1321     O1322   2.439       .  S
Zr1321     O1323   2.427       .  S
Zr1321     O1324   2.457       .  S
Zr1321     O1327   2.446       .  S
Zr1321     O1329   2.384       .  S
Zr1321     O1330   2.384       .  S
Zr1321     O1331   2.405       .  S
Zr1321     O1332   2.394       .  S
O1322      H1378   0.990       .  S
O1322      H1386   0.990       .  S
O1323      C1343   1.281       .  A
O1324      C1345   1.287       .  A
O1325     Zr1335   2.413       .  S
O1325      C1344   1.281       .  A
O1326     Zr1334   2.418       .  S
O1326      C1345   1.281       .  A
O1327      C1344   1.287       .  A
O1328     Zr1336   2.427       .  S
O1328      C1343   1.282       .  A
O1329     Zr1334   2.394       .  S
O1329     Zr1336   2.372       .  S
O1330     Zr1335   2.387       .  S
O1330     Zr1336   2.369       .  S
O1330      H1365   0.966       .  S
O1331     Zr1334   2.398       .  S
O1331     Zr1351   2.397       .  S
O1331      H1368   0.966       .  S
O1332     Zr1335   2.396       .  S
O1332     Zr1351   2.388       .  S
Zr1333     O1358   2.441       .  S
Zr1333     O1352   2.450       .  S
Zr1333     O1360   2.432       .  S
Zr1333     O1348   2.427       .  S
Zr1333     O1339   2.407       .  S
Zr1333     O1340   2.411       .  S
Zr1333     O1341   2.382       .  S
Zr1333     O1342   2.380       .  S
Zr1334     O1353   2.435       .  S
Zr1334     O1346   2.434       .  S
Zr1334     O1347   2.428       .  S
Zr1334     O1340   2.391       .  S
Zr1334     O1341   2.390       .  S
Zr1335     O1337   2.436       .  S
Zr1335     O1359   2.440       .  S
Zr1335     O1361   2.420       .  S
Zr1335     O1339   2.388       .  S
Zr1335     O1342   2.389       .  S
Zr1336     O1362   2.436       .  S
Zr1336     O1363   2.436       .  S
Zr1336     O1338   2.436       .  S
Zr1336     O1339   2.397       .  S
Zr1336     O1340   2.389       .  S
O1337      H1374   0.990       .  S
O1338      H1369   0.990       .  S
O1338      H1383   0.990       .  S
O1340      H1366   0.965       .  S
O1341     Zr1351   2.383       .  S
O1342     Zr1351   2.384       .  S
O1342      H1367   0.966       .  S
C1343      C2411   1.465       .  S
C1344      C2519   1.468       .  S
C1345      C2825   1.473       .  S
O1346      H1382   0.990       .  S
O1347      C1349   1.282       .  A
O1348      C1349   1.283       .  A
C1349      C3617   1.465       .  S
O1350     Zr1351   2.438       .  S
O1350      H1379   0.991       .  S
Zr1351     O1354   2.438       .  S
Zr1351     O1355   2.440       .  S
Zr1351     O1356   2.408       .  S
O1352      C1357   1.287       .  A
O1353      H1370   0.990       .  S
O1353      H1385   0.990       .  S
O1354      H1371   0.990       .  S
O1355      H1375   0.990       .  S
O1355      H1384   0.990       .  S
O1356      C1357   1.279       .  A
C1357      C2573   1.473       .  S
O1358      H1377   0.990       .  S
O1358      H1381   0.990       .  S
O1359      H1373   0.990       .  S
O1359      H1380   0.990       .  S
O1360      C1364   1.282       .  A
O1361      C1364   1.282       .  A
O1362      H1372   0.990       .  S
O1363      H1376   0.990       .  S
C1364      C2426   1.465       .  S
Zr1387     O1388   2.440       .  S
Zr1387     O1389   2.422       .  S
Zr1387     O1390   2.447       .  S
Zr1387     O1393   2.435       .  S
Zr1387     O1395   2.383       .  S
Zr1387     O1396   2.386       .  S
Zr1387     O1397   2.403       .  S
Zr1387     O1398   2.393       .  S
O1388      H1444   0.990       .  S
O1388      H1452   0.990       .  S
O1389      C1409   1.281       .  A
O1390      C1411   1.285       .  A
O1391     Zr1401   2.412       .  S
O1391      C1410   1.281       .  A
O1392     Zr1400   2.417       .  S
O1392      C1411   1.281       .  A
O1393      C1410   1.284       .  A
O1394     Zr1402   2.429       .  S
O1394      C1409   1.283       .  A
O1395     Zr1400   2.391       .  S
O1395     Zr1402   2.373       .  S
O1396     Zr1401   2.382       .  S
O1396     Zr1402   2.370       .  S
O1396      H1431   0.966       .  S
O1397     Zr1400   2.397       .  S
O1397     Zr1417   2.398       .  S
O1397      H1434   0.966       .  S
O1398     Zr1401   2.393       .  S
O1398     Zr1417   2.390       .  S
Zr1399     O1424   2.442       .  S
Zr1399     O1418   2.451       .  S
Zr1399     O1426   2.444       .  S
Zr1399     O1414   2.435       .  S
Zr1399     O1405   2.404       .  S
Zr1399     O1406   2.417       .  S
Zr1399     O1407   2.382       .  S
Zr1399     O1408   2.382       .  S
Zr1400     O1419   2.435       .  S
Zr1400     O1412   2.434       .  S
Zr1400     O1413   2.426       .  S
Zr1400     O1406   2.391       .  S
Zr1400     O1407   2.392       .  S
Zr1401     O1403   2.436       .  S
Zr1401     O1425   2.440       .  S
Zr1401     O1427   2.412       .  S
Zr1401     O1405   2.386       .  S
Zr1401     O1408   2.393       .  S
Zr1402     O1428   2.435       .  S
Zr1402     O1429   2.436       .  S
Zr1402     O1404   2.437       .  S
Zr1402     O1405   2.392       .  S
Zr1402     O1406   2.388       .  S
O1403      H1440   0.990       .  S
O1404      H1435   0.990       .  S
O1404      H1449   0.990       .  S
O1406      H1432   0.964       .  S
O1407     Zr1417   2.383       .  S
O1408     Zr1417   2.388       .  S
O1408      H1433   0.966       .  S
C1409      C2393   1.462       .  S
C1410      C2375   1.465       .  S
C1411      C2879   1.467       .  S
O1412      H1448   0.990       .  S
O1413      C1415   1.282       .  A
O1414      C1415   1.284       .  A
C1415      C3023   1.467       .  S
O1416     Zr1417   2.439       .  S
O1416      H1445   0.990       .  S
Zr1417     O1420   2.437       .  S
Zr1417     O1421   2.439       .  S
Zr1417     O1422   2.408       .  S
O1418      C1423   1.286       .  A
O1419      H1436   0.990       .  S
O1419      H1451   0.990       .  S
O1420      H1437   0.990       .  S
O1421      H1441   0.990       .  S
O1421      H1450   0.990       .  S
O1422      C1423   1.279       .  A
C1423      C2354   1.473       .  S
O1424      H1443   0.990       .  S
O1424      H1447   0.990       .  S
O1425      H1439   0.990       .  S
O1425      H1446   0.990       .  S
O1426      C1430   1.284       .  A
O1427      C1430   1.279       .  A
O1428      H1438   0.990       .  S
O1429      H1442   0.991       .  S
C1430      C2429   1.465       .  S
Zr1453     O1454   2.440       .  S
Zr1453     O1455   2.436       .  S
Zr1453     O1456   2.459       .  S
Zr1453     O1459   2.447       .  S
Zr1453     O1461   2.383       .  S
Zr1453     O1462   2.389       .  S
Zr1453     O1463   2.409       .  S
Zr1453     O1464   2.400       .  S
O1454      H1510   0.990       .  S
O1454      H1518   0.990       .  S
O1455      C1475   1.283       .  A
O1456      C1477   1.287       .  A
O1457     Zr1467   2.417       .  S
O1457      C1476   1.281       .  A
O1458     Zr1466   2.408       .  S
O1458      C1477   1.278       .  A
O1459      C1476   1.286       .  A
O1460     Zr1468   2.434       .  S
O1460      C1475   1.283       .  A
O1461     Zr1466   2.396       .  S
O1461     Zr1468   2.373       .  S
O1462     Zr1467   2.392       .  S
O1462     Zr1468   2.371       .  S
O1462      H1497   0.966       .  S
O1463     Zr1466   2.399       .  S
O1463     Zr1483   2.397       .  S
O1463      H1500   0.965       .  S
O1464     Zr1467   2.396       .  S
O1464     Zr1483   2.389       .  S
Zr1465     O1490   2.442       .  S
Zr1465     O1484   2.462       .  S
Zr1465     O1492   2.439       .  S
Zr1465     O1480   2.440       .  S
Zr1465     O1471   2.414       .  S
Zr1465     O1472   2.416       .  S
Zr1465     O1473   2.380       .  S
Zr1465     O1474   2.384       .  S
Zr1466     O1485   2.436       .  S
Zr1466     O1478   2.433       .  S
Zr1466     O1479   2.431       .  S
Zr1466     O1472   2.393       .  S
Zr1466     O1473   2.388       .  S
Zr1467     O1469   2.434       .  S
Zr1467     O1491   2.437       .  S
Zr1467     O1493   2.433       .  S
Zr1467     O1471   2.393       .  S
Zr1467     O1474   2.396       .  S
Zr1468     O1494   2.436       .  S
Zr1468     O1495   2.435       .  S
Zr1468     O1470   2.438       .  S
Zr1468     O1471   2.402       .  S
Zr1468     O1472   2.391       .  S
O1469      H1506   0.990       .  S
O1470      H1501   0.990       .  S
O1470      H1515   0.990       .  S
O1472      H1498   0.964       .  S
O1473     Zr1483   2.384       .  S
O1474     Zr1483   2.387       .  S
O1474      H1499   0.966       .  S
C1475      C2408   1.474       .  S
C1476      C3776   1.469       .  S
C1477      C2699   1.467       .  S
O1478      H1514   0.990       .  S
O1479      C1481   1.283       .  A
O1480      C1481   1.285       .  A
C1481      C2588   1.472       .  S
O1482     Zr1483   2.441       .  S
O1482      H1511   0.990       .  S
Zr1483     O1486   2.439       .  S
Zr1483     O1487   2.440       .  S
Zr1483     O1488   2.407       .  S
O1484      C1489   1.288       .  A
O1485      H1502   0.990       .  S
O1485      H1517   0.990       .  S
O1486      H1503   0.990       .  S
O1487      H1507   0.990       .  S
O1487      H1516   0.990       .  S
O1488      C1489   1.279       .  A
C1489      C3578   1.479       .  S
O1490      H1509   0.990       .  S
O1490      H1513   0.990       .  S
O1491      H1505   0.990       .  S
O1491      H1512   0.990       .  S
O1492      C1496   1.283       .  A
O1493      C1496   1.283       .  A
O1494      H1504   0.990       .  S
O1495      H1508   0.990       .  S
C1496      C2336   1.474       .  S
Zr1519     O1520   2.442       .  S
Zr1519     O1521   2.427       .  S
Zr1519     O1522   2.452       .  S
Zr1519     O1525   2.442       .  S
Zr1519     O1527   2.380   1_554  S
Zr1519     O1528   2.389       .  S
Zr1519     O1529   2.404   1_554  S
Zr1519     O1530   2.392   1_554  S
O1520      H1576   0.990       .  S
O1520      H1584   0.990       .  S
O1521      C1541   1.282       .  A
O1522      C1543   1.285   1_554  A
O1523     Zr1533   2.416   1_554  S
O1523      C1542   1.282       .  A
O1524     Zr1532   2.412       .  S
O1524      C1543   1.279       .  A
O1525      C1542   1.286       .  A
O1526     Zr1534   2.426   1_554  S
O1526      C1541   1.281       .  A
O1527     Zr1532   2.393       .  S
O1527     Zr1534   2.371       .  S
O1528     Zr1533   2.391   1_554  S
O1528     Zr1534   2.371   1_554  S
O1528      H1563   0.966       .  S
O1529     Zr1532   2.398       .  S
O1529     Zr1549   2.398       .  S
O1529      H1566   0.965       .  S
O1530     Zr1533   2.396       .  S
O1530     Zr1549   2.385       .  S
Zr1531     O1556   2.442       .  S
Zr1531     O1550   2.454       .  S
Zr1531     O1558   2.436       .  S
Zr1531     O1546   2.429       .  S
Zr1531     O1537   2.410       .  S
Zr1531     O1538   2.416       .  S
Zr1531     O1539   2.378       .  S
Zr1531     O1540   2.377       .  S
Zr1532     O1551   2.433       .  S
Zr1532     O1544   2.435       .  S
Zr1532     O1545   2.428       .  S
Zr1532     O1538   2.394       .  S
Zr1532     O1539   2.390       .  S
Zr1533     O1535   2.434       .  S
Zr1533     O1557   2.440   1_556  S
Zr1533     O1559   2.424       .  S
Zr1533     O1537   2.390       .  S
Zr1533     O1540   2.395       .  S
Zr1534     O1560   2.436   1_556  S
Zr1534     O1561   2.435       .  S
Zr1534     O1536   2.437       .  S
Zr1534     O1537   2.400       .  S
Zr1534     O1538   2.387       .  S
O1535      H1572   0.990       .  S
O1536      H1567   0.990   1_556  S
O1536      H1581   0.990       .  S
O1538      H1564   0.964       .  S
O1539     Zr1549   2.383       .  S
O1540     Zr1549   2.385       .  S
O1540      H1565   0.966       .  S
C1541      C2390   1.465       .  S
C1542      C3128   1.467       .  S
C1543      C2750   1.466   1_556  S
O1544      H1580   0.990       .  S
O1545      C1547   1.283       .  A
O1546      C1547   1.282       .  A
C1547      C2318   1.464       .  S
O1548     Zr1549   2.438       .  S
O1548      H1577   0.990       .  S
Zr1549     O1552   2.437       .  S
Zr1549     O1553   2.439       .  S
Zr1549     O1554   2.408       .  S
O1550      C1555   1.286       .  A
O1551      H1568   0.990       .  S
O1551      H1583   0.990       .  S
O1552      H1569   0.990       .  S
O1553      H1573   0.990       .  S
O1553      H1582   0.990       .  S
O1554      C1555   1.279       .  A
C1555      C3005   1.477       .  S
O1556      H1575   0.991       .  S
O1556      H1579   0.990       .  S
O1557      H1571   0.990       .  S
O1557      H1578   0.990       .  S
O1558      C1562   1.282       .  A
O1559      C1562   1.282       .  A
O1560      H1570   0.990       .  S
O1561      H1574   0.990       .  S
C1562      C2339   1.470       .  S
Zr1585     O1586   2.441       .  S
Zr1585     O1587   2.431       .  S
Zr1585     O1588   2.451       .  S
Zr1585     O1591   2.437       .  S
Zr1585     O1593   2.380       .  S
Zr1585     O1594   2.387   1_545  S
Zr1585     O1595   2.405       .  S
Zr1585     O1596   2.396       .  S
O1586      H1642   0.990       .  S
O1586      H1650   0.990       .  S
O1587      C1607   1.282       .  A
O1588      C1609   1.285       .  A
O1589     Zr1599   2.414       .  S
O1589      C1608   1.281   1_565  A
O1590     Zr1598   2.416       .  S
O1590      C1609   1.280       .  A
O1591      C1608   1.285       .  A
O1592     Zr1600   2.418   1_545  S
O1592      C1607   1.280       .  A
O1593     Zr1598   2.391       .  S
O1593     Zr1600   2.374   1_545  S
O1594     Zr1599   2.388       .  S
O1594     Zr1600   2.369       .  S
O1594      H1629   0.966       .  S
O1595     Zr1598   2.397       .  S
O1595     Zr1615   2.399       .  S
O1595      H1632   0.965       .  S
O1596     Zr1599   2.396   1_545  S
O1596     Zr1615   2.390       .  S
Zr1597     O1622   2.442       .  S
Zr1597     O1616   2.455       .  S
Zr1597     O1624   2.432       .  S
Zr1597     O1612   2.436   1_565  S
Zr1597     O1603   2.411       .  S
Zr1597     O1604   2.415   1_565  S
Zr1597     O1605   2.379   1_565  S
Zr1597     O1606   2.382       .  S
Zr1598     O1617   2.435       .  S
Zr1598     O1610   2.435       .  S
Zr1598     O1611   2.415       .  S
Zr1598     O1604   2.393       .  S
Zr1598     O1605   2.392       .  S
Zr1599     O1601   2.437       .  S
Zr1599     O1623   2.441       .  S
Zr1599     O1625   2.430       .  S
Zr1599     O1603   2.389       .  S
Zr1599     O1606   2.394       .  S
Zr1600     O1626   2.436       .  S
Zr1600     O1627   2.435       .  S
Zr1600     O1602   2.436       .  S
Zr1600     O1603   2.399       .  S
Zr1600     O1604   2.384   1_565  S
O1601      H1638   0.990       .  S
O1602      H1633   0.990       .  S
O1602      H1647   0.990   1_565  S
O1604      H1630   0.964       .  S
O1605     Zr1615   2.382       .  S
O1606     Zr1615   2.387   1_565  S
O1606      H1631   0.966       .  S
C1607      C2282   1.464       .  S
C1608      C2267   1.464       .  S
C1609      C3182   1.468       .  S
O1610      H1646   0.990       .  S
O1611      C1613   1.280       .  A
O1612      C1613   1.284       .  A
C1613      C3095   1.462       .  S
O1614     Zr1615   2.440       .  S
O1614      H1643   0.990       .  S
Zr1615     O1618   2.438       .  S
Zr1615     O1619   2.439       .  S
Zr1615     O1620   2.409       .  S
O1616      C1621   1.286   1_565  A
O1617      H1634   0.990       .  S
O1617      H1649   0.990       .  S
O1618      H1635   0.990       .  S
O1619      H1639   0.990       .  S
O1619      H1648   0.990       .  S
O1620      C1621   1.279       .  A
C1621      C2249   1.476       .  S
O1622      H1641   0.990       .  S
O1622      H1645   0.990       .  S
O1623      H1637   0.990       .  S
O1623      H1644   0.990       .  S
O1624      C1628   1.281       .  A
O1625      C1628   1.283       .  A
O1626      H1636   0.990       .  S
O1627      H1640   0.990       .  S
C1628      C2303   1.468       .  S
Zr1651     O1652   2.440       .  S
Zr1651     O1653   2.432       .  S
Zr1651     O1654   2.461       .  S
Zr1651     O1657   2.443       .  S
Zr1651     O1659   2.384   1_554  S
Zr1651     O1660   2.390       .  S
Zr1651     O1661   2.405   1_554  S
Zr1651     O1662   2.394   1_554  S
O1652      H1708   0.990       .  S
O1652      H1716   0.990       .  S
O1653      C1673   1.282       .  A
O1654      C1675   1.287   1_554  A
O1655     Zr1665   2.414   1_554  S
O1655      C1674   1.280       .  A
O1656     Zr1664   2.415       .  S
O1656      C1675   1.280       .  A
O1657      C1674   1.285       .  A
O1658     Zr1666   2.418   1_554  S
O1658      C1673   1.280       .  A
O1659     Zr1664   2.393       .  S
O1659     Zr1666   2.377       .  S
O1660     Zr1665   2.386   1_554  S
O1660     Zr1666   2.376   1_554  S
O1660      H1695   0.966       .  S
O1661     Zr1664   2.395       .  S
O1661     Zr1681   2.398       .  S
O1661      H1698   0.965       .  S
O1662     Zr1665   2.388       .  S
O1662     Zr1681   2.382       .  S
Zr1663     O1688   2.442       .  S
Zr1663     O1682   2.451       .  S
Zr1663     O1690   2.448       .  S
Zr1663     O1678   2.433       .  S
Zr1663     O1669   2.408       .  S
Zr1663     O1670   2.415       .  S
Zr1663     O1671   2.383       .  S
Zr1663     O1672   2.380       .  S
Zr1664     O1683   2.435       .  S
Zr1664     O1676   2.435       .  S
Zr1664     O1677   2.423       .  S
Zr1664     O1670   2.396       .  S
Zr1664     O1671   2.389       .  S
Zr1665     O1667   2.437       .  S
Zr1665     O1689   2.437   1_556  S
Zr1665     O1691   2.412       .  S
Zr1665     O1669   2.392       .  S
Zr1665     O1672   2.394       .  S
Zr1666     O1692   2.436   1_556  S
Zr1666     O1693   2.437       .  S
Zr1666     O1668   2.438       .  S
Zr1666     O1669   2.396       .  S
Zr1666     O1670   2.388       .  S
O1667      H1704   0.990       .  S
O1668      H1699   0.990       .  S
O1668      H1713   0.990       .  S
O1670      H1696   0.965       .  S
O1671     Zr1681   2.378       .  S
O1672     Zr1681   2.383       .  S
O1672      H1697   0.966       .  S
C1673      C2231   1.462       .  S
C1674      C2642   1.464       .  S
C1675      C3257   1.473   1_556  S
O1676      H1712   0.990       .  S
O1677      C1679   1.282       .  A
O1678      C1679   1.284       .  A
C1679      C3704   1.464       .  S
O1680     Zr1681   2.434       .  S
O1680      H1709   0.990       .  S
Zr1681     O1684   2.435       .  S
Zr1681     O1685   2.438       .  S
Zr1681     O1686   2.406       .  S
O1682      C1687   1.286       .  A
O1683      H1700   0.990       .  S
O1683      H1715   0.990       .  S
O1684      H1701   0.990       .  S
O1685      H1705   0.990       .  S
O1685      H1714   0.990       .  S
O1686      C1687   1.279       .  A
C1687      C2465   1.474       .  S
O1688      H1707   0.990       .  S
O1688      H1711   0.990       .  S
O1689      H1703   0.990       .  S
O1689      H1710   0.990       .  S
O1690      C1694   1.285       .  A
O1691      C1694   1.280       .  A
O1692      H1702   0.990       .  S
O1693      H1706   0.990       .  S
C1694      C2300   1.467       .  S
Zr1717     O1718   2.440       .  S
Zr1717     O1719   2.429       .  S
Zr1717     O1720   2.467       .  S
Zr1717     O1723   2.452       .  S
Zr1717     O1725   2.384       .  S
Zr1717     O1726   2.394   1_545  S
Zr1717     O1727   2.405       .  S
Zr1717     O1728   2.393       .  S
O1718      H1774   0.990       .  S
O1718      H1782   0.990       .  S
O1719      C1739   1.282       .  A
O1720      C1741   1.288       .  A
O1721     Zr1731   2.417       .  S
O1721      C1740   1.282   1_565  A
O1722     Zr1730   2.420       .  S
O1722      C1741   1.281       .  A
O1723      C1740   1.288       .  A
O1724     Zr1732   2.422   1_545  S
O1724      C1739   1.281       .  A
O1725     Zr1730   2.395       .  S
O1725     Zr1732   2.372   1_545  S
O1726     Zr1731   2.391       .  S
O1726     Zr1732   2.377       .  S
O1726      H1761   0.966       .  S
O1727     Zr1730   2.396       .  S
O1727     Zr1747   2.392       .  S
O1727      H1764   0.965       .  S
O1728     Zr1731   2.393   1_545  S
O1728     Zr1747   2.384       .  S
Zr1729     O1754   2.444       .  S
Zr1729     O1748   2.452       .  S
Zr1729     O1756   2.434       .  S
Zr1729     O1744   2.434       .  S
Zr1729     O1735   2.414       .  S
Zr1729     O1736   2.414   1_565  S
Zr1729     O1737   2.381   1_565  S
Zr1729     O1738   2.380       .  S
Zr1730     O1749   2.435       .  S
Zr1730     O1742   2.436       .  S
Zr1730     O1743   2.425       .  S
Zr1730     O1736   2.393       .  S
Zr1730     O1737   2.393       .  S
Zr1731     O1733   2.435       .  S
Zr1731     O1755   2.438       .  S
Zr1731     O1757   2.420       .  S
Zr1731     O1735   2.391       .  S
Zr1731     O1738   2.390       .  S
Zr1732     O1758   2.435       .  S
Zr1732     O1759   2.436       .  S
Zr1732     O1734   2.437   1_565  S
Zr1732     O1735   2.404       .  S
Zr1732     O1736   2.387   1_565  S
O1733      H1770   0.990       .  S
O1734      H1765   0.990   1_545  S
O1734      H1779   0.990       .  S
O1736      H1762   0.965   1_545  S
O1737     Zr1747   2.382       .  S
O1738     Zr1747   2.384   1_565  S
O1738      H1763   0.966       .  S
C1739      C2285   1.464       .  S
C1740      C2984   1.473       .  S
C1741      C3308   1.475       .  S
O1742      H1778   0.990       .  S
O1743      C1745   1.283       .  A
O1744      C1745   1.284   1_565  A
C1745      C2192   1.467       .  S
O1746     Zr1747   2.435       .  S
O1746      H1775   0.990       .  S
Zr1747     O1750   2.435       .  S
Zr1747     O1751   2.438       .  S
Zr1747     O1752   2.401       .  S
O1748      C1753   1.286   1_565  A
O1749      H1766   0.990       .  S
O1749      H1781   0.990       .  S
O1750      H1767   0.990       .  S
O1751      H1771   0.990       .  S
O1751      H1780   0.990       .  S
O1752      C1753   1.277       .  A
C1753      C3059   1.472       .  S
O1754      H1773   0.991       .  S
O1754      H1777   0.990       .  S
O1755      H1769   0.990       .  S
O1755      H1776   0.990       .  S
O1756      C1760   1.281       .  A
O1757      C1760   1.281       .  A
O1758      H1768   0.990       .  S
O1759      H1772   0.990       .  S
C1760      C2213   1.467       .  S
Zr1783     O1784   2.440       .  S
Zr1783     O1785   2.429       .  S
Zr1783     O1786   2.459       .  S
Zr1783     O1789   2.446       .  S
Zr1783     O1791   2.381       .  S
Zr1783     O1792   2.389       .  S
Zr1783     O1793   2.405       .  S
Zr1783     O1794   2.396       .  S
O1784      H1840   0.990       .  S
O1784      H1848   0.990       .  S
O1785      C1805   1.283       .  A
O1786      C1807   1.287       .  A
O1787     Zr1797   2.414       .  S
O1787      C1806   1.281       .  A
O1788     Zr1796   2.417       .  S
O1788      C1807   1.280       .  A
O1789      C1806   1.287       .  A
O1790     Zr1798   2.418       .  S
O1790      C1805   1.280       .  A
O1791     Zr1796   2.393       .  S
O1791     Zr1798   2.371       .  S
O1792     Zr1797   2.389       .  S
O1792     Zr1798   2.372       .  S
O1792      H1827   0.966       .  S
O1793     Zr1796   2.396       .  S
O1793     Zr1813   2.399       .  S
O1793      H1830   0.965       .  S
O1794     Zr1797   2.393       .  S
O1794     Zr1813   2.387       .  S
Zr1795     O1820   2.441       .  S
Zr1795     O1814   2.456       .  S
Zr1795     O1822   2.441       .  S
Zr1795     O1810   2.444       .  S
Zr1795     O1801   2.410       .  S
Zr1795     O1802   2.411       .  S
Zr1795     O1803   2.382       .  S
Zr1795     O1804   2.381       .  S
Zr1796     O1815   2.434       .  S
Zr1796     O1808   2.434       .  S
Zr1796     O1809   2.430       .  S
Zr1796     O1802   2.393       .  S
Zr1796     O1803   2.388       .  S
Zr1797     O1799   2.435       .  S
Zr1797     O1821   2.440       .  S
Zr1797     O1823   2.414       .  S
Zr1797     O1801   2.391       .  S
Zr1797     O1804   2.392       .  S
Zr1798     O1824   2.438       .  S
Zr1798     O1825   2.435       .  S
Zr1798     O1800   2.437       .  S
Zr1798     O1801   2.399       .  S
Zr1798     O1802   2.381       .  S
O1799      H1836   0.990       .  S
O1800      H1831   0.990       .  S
O1800      H1845   0.990       .  S
O1802      H1828   0.964       .  S
O1803     Zr1813   2.387       .  S
O1804     Zr1813   2.385       .  S
O1804      H1829   0.966       .  S
C1805      C2228   1.461       .  S
C1806      C3545   1.469       .  S
C1807      C3398   1.473       .  S
O1808      H1844   0.990       .  S
O1809      C1811   1.283       .  A
O1810      C1811   1.286       .  A
C1811      C2483   1.472       .  S
O1812     Zr1813   2.440       .  S
O1812      H1841   0.990       .  S
Zr1813     O1816   2.438       .  S
Zr1813     O1817   2.440       .  S
Zr1813     O1818   2.406       .  S
O1814      C1819   1.287       .  A
O1815      H1832   0.990       .  S
O1815      H1847   0.990       .  S
O1816      H1833   0.990       .  S
O1817      H1837   0.990       .  S
O1817      H1846   0.990       .  S
O1818      C1819   1.278       .  A
C1819      C3671   1.476       .  S
O1820      H1839   0.990       .  S
O1820      H1843   0.990       .  S
O1821      H1835   0.990       .  S
O1821      H1842   0.989       .  S
O1822      C1826   1.284       .  A
O1823      C1826   1.280       .  A
O1824      H1834   0.990       .  S
O1825      H1838   0.990       .  S
C1826      C2210   1.466       .  S
Zr1849     O1850   2.442       .  S
Zr1849     O1851   2.450       .  S
Zr1849     O1852   2.448       .  S
Zr1849     O1855   2.434       .  S
Zr1849     O1857   2.375       .  S
Zr1849     O1858   2.385       .  S
Zr1849     O1859   2.411       .  S
Zr1849     O1860   2.404       .  S
O1850      H1906   0.990       .  S
O1850      H1914   0.990       .  S
O1851      C1871   1.286       .  A
O1852      C1873   1.285       .  A
O1853     Zr1863   2.429       .  S
O1853      C1872   1.283       .  A
O1854     Zr1862   2.424       .  S
O1854      C1873   1.281       .  A
O1855      C1872   1.284       .  A
O1856     Zr1864   2.401       .  S
O1856      C1871   1.277       .  A
O1857     Zr1862   2.394       .  S
O1857     Zr1864   2.380       .  S
O1858     Zr1863   2.397       .  S
O1858     Zr1864   2.382       .  S
O1858      H1893   0.966       .  S
O1859     Zr1862   2.400       .  S
O1859     Zr1879   2.400       .  S
O1859      H1896   0.966       .  S
O1860     Zr1863   2.392       .  S
O1860     Zr1879   2.392       .  S
Zr1861     O1886   2.441       .  S
Zr1861     O1880   2.430       .  S
Zr1861     O1888   2.454       .  S
Zr1861     O1876   2.442       .  S
Zr1861     O1867   2.400       .  S
Zr1861     O1868   2.405       .  S
Zr1861     O1869   2.385       .  S
Zr1861     O1870   2.382       .  S
Zr1862     O1881   2.438       .  S
Zr1862     O1874   2.435       .  S
Zr1862     O1875   2.417       .  S
Zr1862     O1868   2.406       .  S
Zr1862     O1869   2.392       .  S
Zr1863     O1865   2.436       .  S
Zr1863     O1887   2.437       .  S
Zr1863     O1889   2.428       .  S
Zr1863     O1867   2.394       .  S
Zr1863     O1870   2.390       .  S
Zr1864     O1890   2.436       .  S
Zr1864     O1891   2.435       .  S
Zr1864     O1866   2.439       .  S
Zr1864     O1867   2.393       .  S
Zr1864     O1868   2.385       .  S
O1865      H1902   0.990       .  S
O1866      H1897   0.990       .  S
O1866      H1911   0.990       .  S
O1868      H1894   0.965       .  S
O1869     Zr1879   2.375       .  S
O1870     Zr1879   2.374       .  S
O1870      H1895   0.966       .  S
C1871      C2357   1.472       .  S
C1872      C3347   1.471       .  S
C1873      C2174   1.471       .  S
O1874      H1910   0.990       .  S
O1875      C1877   1.281       .  A
O1876      C1877   1.285       .  A
C1877      C2321   1.465       .  S
O1878     Zr1879   2.439       .  S
O1878      H1907   0.991       .  S
Zr1879     O1882   2.438       .  S
Zr1879     O1883   2.441       .  S
Zr1879     O1884   2.423       .  S
O1880      C1885   1.283       .  A
O1881      H1898   0.990       .  S
O1881      H1913   0.990       .  S
O1882      H1899   0.990       .  S
O1883      H1903   0.990       .  S
O1883      H1912   0.990       .  S
O1884      C1885   1.281       .  A
C1885      C2156   1.466       .  S
O1886      H1905   0.990       .  S
O1886      H1909   0.990       .  S
O1887      H1901   0.990       .  S
O1887      H1908   0.990       .  S
O1888      C1892   1.287       .  A
O1889      C1892   1.283       .  A
O1890      H1900   0.990       .  S
O1891      H1904   0.990       .  S
C1892      C2501   1.473       .  S
Zr1915     O1916   2.441       .  S
Zr1915     O1917   2.454       .  S
Zr1915     O1918   2.445       .  S
Zr1915     O1921   2.432       .  S
Zr1915     O1923   2.376       .  S
Zr1915     O1924   2.386   1_545  S
Zr1915     O1925   2.414       .  S
Zr1915     O1926   2.403       .  S
O1916      H1972   0.990       .  S
O1916      H1980   0.990       .  S
O1917      C1937   1.286       .  A
O1918      C1939   1.284       .  A
O1919     Zr1929   2.416       .  S
O1919      C1938   1.281   1_565  A
O1920     Zr1928   2.425       .  S
O1920      C1939   1.281       .  A
O1921      C1938   1.283       .  A
O1922     Zr1930   2.405       .  S
O1922      C1937   1.278   1_565  A
O1923     Zr1928   2.395       .  S
O1923     Zr1930   2.384   1_545  S
O1924     Zr1929   2.396       .  S
O1924     Zr1930   2.379       .  S
O1924      H1959   0.966       .  S
O1925     Zr1928   2.398       .  S
O1925     Zr1945   2.403       .  S
O1925      H1962   0.966       .  S
O1926     Zr1929   2.388   1_545  S
O1926     Zr1945   2.391       .  S
Zr1927     O1952   2.440       .  S
Zr1927     O1946   2.429       .  S
Zr1927     O1954   2.453       .  S
Zr1927     O1942   2.449       .  S
Zr1927     O1933   2.403       .  S
Zr1927     O1934   2.402       .  S
Zr1927     O1935   2.383   1_565  S
Zr1927     O1936   2.381       .  S
Zr1928     O1947   2.438       .  S
Zr1928     O1940   2.435       .  S
Zr1928     O1941   2.414       .  S
Zr1928     O1934   2.404   1_545  S
Zr1928     O1935   2.390       .  S
Zr1929     O1931   2.436       .  S
Zr1929     O1953   2.436       .  S
Zr1929     O1955   2.417       .  S
Zr1929     O1933   2.395       .  S
Zr1929     O1936   2.386       .  S
Zr1930     O1956   2.437       .  S
Zr1930     O1957   2.434       .  S
Zr1930     O1932   2.439       .  S
Zr1930     O1933   2.393       .  S
Zr1930     O1934   2.389       .  S
O1931      H1968   0.990       .  S
O1932      H1963   0.990   1_565  S
O1932      H1977   0.990       .  S
O1934      H1960   0.965       .  S
O1935     Zr1945   2.375       .  S
O1936     Zr1945   2.367   1_565  S
O1936      H1961   0.966       .  S
C1937      C2768   1.476       .  S
C1938      C2264   1.464       .  S
C1939      C2177   1.470       .  S
O1940      H1976   0.990       .  S
O1941      C1943   1.281       .  A
O1942      C1943   1.286   1_565  A
C1943      C2897   1.465       .  S
O1944     Zr1945   2.438       .  S
O1944      H1973   0.991       .  S
Zr1945     O1948   2.438       .  S
Zr1945     O1949   2.439       .  S
Zr1945     O1950   2.431       .  S
O1946      C1951   1.283   1_565  A
O1947      H1964   0.990       .  S
O1947      H1979   0.990       .  S
O1948      H1965   0.990       .  S
O1949      H1969   0.990       .  S
O1949      H1978   0.990       .  S
O1950      C1951   1.283       .  A
C1951      C2141   1.468       .  S
O1952      H1971   0.990       .  S
O1952      H1975   0.990       .  S
O1953      H1967   0.990       .  S
O1953      H1974   0.990       .  S
O1954      C1958   1.288       .  A
O1955      C1958   1.281       .  A
O1956      H1966   0.990       .  S
O1957      H1970   0.990       .  S
C1958      C2447   1.468       .  S
Zr1981     O1982   2.442       .  S
Zr1981     O1983   2.450       .  S
Zr1981     O1984   2.439       .  S
Zr1981     O1987   2.437       .  S
Zr1981     O1989   2.379       .  S
Zr1981     O1990   2.383       .  S
Zr1981     O1991   2.415       .  S
Zr1981     O1992   2.402       .  S
O1982      H2038   0.990       .  S
O1982      H2046   0.991       .  S
O1983      C2003   1.286       .  A
O1984      C2005   1.283       .  A
O1985     Zr1995   2.424       .  S
O1985      C2004   1.282       .  A
O1986     Zr1994   2.423       .  S
O1986      C2005   1.282       .  A
O1987      C2004   1.284       .  A
O1988     Zr1996   2.402   1_455  S
O1988      C2003   1.277   1_455  A
O1989     Zr1994   2.395       .  S
O1989     Zr1996   2.383       .  S
O1990     Zr1995   2.389       .  S
O1990     Zr1996   2.382       .  S
O1990      H2025   0.966       .  S
O1991     Zr1994   2.399       .  S
O1991     Zr2011   2.398       .  S
O1991      H2028   0.966       .  S
O1992     Zr1995   2.384       .  S
O1992     Zr2011   2.394       .  S
Zr1993     O2018   2.443       .  S
Zr1993     O2012   2.427   1_554  S
Zr1993     O2020   2.451       .  S
Zr1993     O2008   2.448   1_655  S
Zr1993     O1999   2.402       .  S
Zr1993     O2000   2.399       .  S
Zr1993     O2001   2.381       .  S
Zr1993     O2002   2.384       .  S
Zr1994     O2013   2.436       .  S
Zr1994     O2006   2.435   1_655  S
Zr1994     O2007   2.423   1_655  S
Zr1994     O2000   2.400       .  S
Zr1994     O2001   2.384       .  S
Zr1995     O1997   2.436       .  S
Zr1995     O2019   2.435       .  S
Zr1995     O2021   2.413       .  S
Zr1995     O1999   2.393       .  S
Zr1995     O2002   2.387       .  S
Zr1996     O2022   2.436       .  S
Zr1996     O2023   2.436   1_655  S
Zr1996     O1998   2.437   1_655  S
Zr1996     O1999   2.394       .  S
Zr1996     O2000   2.387       .  S
O1997      H2034   0.990       .  S
O1998      H2029   0.990       .  S
O1998      H2043   0.990       .  S
O2000      H2026   0.965   1_655  S
O2001     Zr2011   2.372       .  S
O2002     Zr2011   2.365       .  S
O2002      H2027   0.966       .  S
C2003      C3326   1.472   1_655  S
C2004      C2372   1.469       .  S
C2005      C2123   1.465       .  S
O2006      H2042   0.990       .  S
O2007      C2009   1.283       .  A
O2008      C2009   1.287       .  A
C2009      C3221   1.470   1_554  S
O2010     Zr2011   2.438       .  S
O2010      H2039   0.990       .  S
Zr2011     O2014   2.437       .  S
Zr2011     O2015   2.440       .  S
Zr2011     O2016   2.435       .  S
O2012      C2017   1.283       .  A
O2013      H2030   0.990   1_655  S
O2013      H2045   0.990       .  S
O2014      H2031   0.990       .  S
O2015      H2035   0.990       .  S
O2015      H2044   0.990       .  S
O2016      C2017   1.283   1_554  A
C2017      C2159   1.466       .  S
O2018      H2037   0.990       .  S
O2018      H2041   0.990   1_655  S
O2019      H2033   0.990       .  S
O2019      H2040   0.990       .  S
O2020      C2024   1.287       .  A
O2021      C2024   1.281       .  A
O2022      H2032   0.990   1_655  S
O2023      H2036   0.990       .  S
C2024      C2555   1.466       .  S
Zr2047     O2048   2.442       .  S
Zr2047     O2049   2.457       .  S
Zr2047     O2050   2.440       .  S
Zr2047     O2053   2.428       .  S
Zr2047     O2055   2.377       .  S
Zr2047     O2056   2.385   1_545  S
Zr2047     O2057   2.412       .  S
Zr2047     O2058   2.406       .  S
O2048      H2104   0.990       .  S
O2048      H2112   0.991       .  S
O2049      C2069   1.288       .  A
O2050      C2071   1.284       .  A
O2051     Zr2061   2.422       .  S
O2051      C2070   1.282   1_565  A
O2052     Zr2060   2.419       .  S
O2052      C2071   1.281       .  A
O2053      C2070   1.283       .  A
O2054     Zr2062   2.408   1_455  S
O2054      C2069   1.278   1_465  A
O2055     Zr2060   2.395       .  S
O2055     Zr2062   2.381   1_545  S
O2056     Zr2061   2.389       .  S
O2056     Zr2062   2.379       .  S
O2056      H2091   0.966       .  S
O2057     Zr2060   2.395       .  S
O2057     Zr2077   2.400       .  S
O2057      H2094   0.966       .  S
O2058     Zr2061   2.386   1_545  S
O2058     Zr2077   2.391       .  S
Zr2059     O2084   2.441       .  S
Zr2059     O2078   2.439       .  S
Zr2059     O2086   2.447       .  S
Zr2059     O2074   2.446   1_655  S
Zr2059     O2065   2.407       .  S
Zr2059     O2066   2.407       .  S
Zr2059     O2067   2.380   1_565  S
Zr2059     O2068   2.386       .  S
Zr2060     O2079   2.437       .  S
Zr2060     O2072   2.435   1_655  S
Zr2060     O2073   2.419   1_655  S
Zr2060     O2066   2.401   1_545  S
Zr2060     O2067   2.387       .  S
Zr2061     O2063   2.437       .  S
Zr2061     O2085   2.435       .  S
Zr2061     O2087   2.419       .  S
Zr2061     O2065   2.390       .  S
Zr2061     O2068   2.391       .  S
Zr2062     O2088   2.435       .  S
Zr2062     O2089   2.436   1_655  S
Zr2062     O2064   2.438   1_655  S
Zr2062     O2065   2.397       .  S
Zr2062     O2066   2.383       .  S
O2063      H2100   0.990       .  S
O2064      H2095   0.990       .  S
O2064      H2109   0.990   1_565  S
O2066      H2092   0.965   1_655  S
O2067     Zr2077   2.376       .  S
O2068     Zr2077   2.368   1_565  S
O2068      H2093   0.966       .  S
C2069      C2246   1.477   1_655  S
C2070      C2789   1.466       .  S
C2071      C2120   1.466       .  S
O2072      H2108   0.990       .  S
O2073      C2075   1.282       .  A
O2074      C2075   1.285   1_565  A
C2075      C2195   1.467       .  S
O2076     Zr2077   2.437       .  S
O2076      H2105   0.990       .  S
Zr2077     O2080   2.437       .  S
Zr2077     O2081   2.440       .  S
Zr2077     O2082   2.425       .  S
O2078      C2083   1.284   1_565  A
O2079      H2096   0.990       .  S
O2079      H2111   0.990       .  S
O2080      H2097   0.990       .  S
O2081      H2101   0.990       .  S
O2081      H2110   0.990       .  S
O2082      C2083   1.281       .  A
C2083      C2138   1.469       .  S
O2084      H2103   0.990   1_655  S
O2084      H2107   0.991       .  S
O2085      H2099   0.990       .  S
O2085      H2106   0.990       .  S
O2086      C2090   1.286       .  A
O2087      C2090   1.281       .  A
O2088      H2098   0.990   1_655  S
O2089      H2102   0.990       .  S
C2090      C2624   1.468       .  S
C2113      C2118   1.385       .  A
C2113      C2114   1.403       .  A
C2113      N2119   1.342       .  A
C2114      C2115   1.402       .  A
C2114      H2125   1.082       .  S
C2115      C2124   1.379       .  A
C2115      C2116   1.385       .  A
C2116      C2117   1.402       .  A
C2116      N2122   1.341       .  A
C2117      C2118   1.401       .  A
C2117      H2126   1.082       .  S
C2118      C2121   1.377       .  A
N2119      C2120   1.355       .  A
N2119      H2129   1.045       .  S
C2120      C2121   1.394       .  A
C2121      H2127   1.082       .  S
N2122      C2123   1.354       .  A
N2122      H2130   1.045       .  S
C2123      C2124   1.395       .  A
C2124      H2128   1.083       .  S
C2131      C2136   1.385       .  A
C2131      C2132   1.403       .  A
C2131      N2137   1.344       .  A
C2132      C2133   1.403       .  A
C2132      H2143   1.082       .  S
C2133      C2142   1.378       .  A
C2133      C2134   1.385   1_545  A
C2134      C2135   1.403       .  A
C2134      N2140   1.343       .  A
C2135      C2136   1.403   1_565  A
C2135      H2144   1.082       .  S
C2136      C2139   1.378       .  A
N2137      C2138   1.355       .  A
N2137      H2147   1.045       .  S
C2138      C2139   1.395       .  A
C2139      H2145   1.082       .  S
N2140      C2141   1.355   1_565  A
N2140      H2148   1.045       .  S
C2141      C2142   1.395       .  A
C2142      H2146   1.082       .  S
C2149      C2154   1.385       .  A
C2149      C2150   1.402       .  A
C2149      N2155   1.342       .  A
C2150      C2151   1.401       .  A
C2150      H2161   1.082       .  S
C2151      C2160   1.377       .  A
C2151      C2152   1.385       .  A
C2152      C2153   1.404       .  A
C2152      N2158   1.343       .  A
C2153      C2154   1.403       .  A
C2153      H2162   1.082       .  S
C2154      C2157   1.378       .  A
N2155      C2156   1.354       .  A
N2155      H2165   1.045       .  S
C2156      C2157   1.395       .  A
C2157      H2163   1.082       .  S
N2158      C2159   1.355       .  A
N2158      H2166   1.045       .  S
C2159      C2160   1.393       .  A
C2160      H2164   1.082       .  S
C2167      C2172   1.385       .  A
C2167      C2168   1.404       .  A
C2167      N2173   1.343       .  A
C2168      C2169   1.402       .  A
C2168      H2179   1.082       .  S
C2169      C2178   1.379       .  A
C2169      C2170   1.385       .  A
C2170      C2171   1.405       .  A
C2170      N2176   1.344       .  A
C2171      C2172   1.403       .  A
C2171      H2180   1.082       .  S
C2172      C2175   1.380       .  A
N2173      C2174   1.355       .  A
N2173      H2183   1.045       .  S
C2174      C2175   1.395       .  A
C2175      H2181   1.082       .  S
N2176      C2177   1.355       .  A
N2176      H2184   1.045       .  S
C2177      C2178   1.395       .  A
C2178      H2182   1.082       .  S
C2185      C2190   1.384       .  A
C2185      C2186   1.403   1_545  A
C2185      N2191   1.342   1_545  A
C2186      C2187   1.402   1_565  A
C2186      H2197   1.082       .  S
C2187      C2196   1.378   1_545  A
C2187      C2188   1.385       .  A
C2188      C2189   1.402       .  A
C2188      N2194   1.341       .  A
C2189      C2190   1.400       .  A
C2189      H2198   1.082       .  S
C2190      C2193   1.376       .  A
N2191      C2192   1.356   1_565  A
N2191      H2201   1.045       .  S
C2192      C2193   1.395       .  A
C2193      H2199   1.083       .  S
N2194      C2195   1.355       .  A
N2194      H2202   1.045       .  S
C2195      C2196   1.395   1_545  A
C2196      H2200   1.083       .  S
C2203      C2208   1.385       .  A
C2203      C2204   1.401       .  A
C2203      N2209   1.342       .  A
C2204      C2205   1.400       .  A
C2204      H2215   1.082       .  S
C2205      C2214   1.375       .  A
C2205      C2206   1.385       .  A
C2206      C2207   1.403       .  A
C2206      N2212   1.343       .  A
C2207      C2208   1.403       .  A
C2207      H2216   1.082       .  S
C2208      C2211   1.378       .  A
N2209      C2210   1.354       .  A
N2209      H2219   1.045       .  S
C2210      C2211   1.395       .  A
C2211      H2217   1.083       .  S
N2212      C2213   1.356       .  A
N2212      H2220   1.045       .  S
C2213      C2214   1.393       .  A
C2214      H2218   1.082       .  S
C2221      C2226   1.385       .  A
C2221      C2222   1.402       .  A
C2221      N2227   1.342       .  A
C2222      C2223   1.402       .  A
C2222      H2233   1.082       .  S
C2223      C2232   1.377       .  A
C2223      C2224   1.385       .  A
C2224      C2225   1.400       .  A
C2224      N2230   1.341       .  A
C2225      C2226   1.399       .  A
C2225      H2234   1.082       .  S
C2226      C2229   1.374       .  A
N2227      C2228   1.355       .  A
N2227      H2237   1.045       .  S
C2228      C2229   1.392       .  A
C2229      H2235   1.082       .  S
N2230      C2231   1.353       .  A
N2230      H2238   1.045       .  S
C2231      C2232   1.394       .  A
C2232      H2236   1.082       .  S
C2239      C2244   1.383       .  A
C2239      C2240   1.407   1_545  A
C2239      N2245   1.342   1_545  A
C2240      C2241   1.404   1_565  A
C2240      H2251   1.082       .  S
C2241      C2250   1.385   1_544  A
C2241      C2242   1.384   1_554  A
C2242      C2243   1.404   1_556  A
C2242      N2248   1.340       .  A
C2243      C2244   1.401       .  A
C2243      H2252   1.082   1_454  S
C2244      C2247   1.383   1_455  A
N2245      C2246   1.358   1_565  A
N2245      H2255   1.045       .  S
C2246      C2247   1.396   1_455  A
C2247      H2253   1.082       .  S
N2248      C2249   1.356       .  A
N2248      H2256   1.045       .  S
C2249      C2250   1.398   1_545  A
C2250      H2254   1.082       .  S
C2257      C2262   1.385   1_545  A
C2257      C2258   1.404       .  A
C2257      N2263   1.343       .  A
C2258      C2259   1.403       .  A
C2258      H2269   1.082       .  S
C2259      C2268   1.381   1_655  A
C2259      C2260   1.385   1_545  A
C2260      C2261   1.399       .  A
C2260      N2266   1.338   1_655  A
C2261      C2262   1.397       .  A
C2261      H2270   1.083       .  S
C2262      C2265   1.373       .  A
N2263      C2264   1.356       .  A
N2263      H2273   1.045       .  S
C2264      C2265   1.392   1_545  A
C2265      H2271   1.083       .  S
N2266      C2267   1.353   1_565  A
N2266      H2274   1.045       .  S
C2267      C2268   1.395       .  A
C2268      H2272   1.082       .  S
C2275      C2280   1.385       .  A
C2275      C2276   1.402       .  A
C2275      N2281   1.341       .  A
C2276      C2277   1.401       .  A
C2276      H2287   1.082       .  S
C2277      C2286   1.377       .  A
C2277      C2278   1.385       .  A
C2278      C2279   1.402       .  A
C2278      N2284   1.342       .  A
C2279      C2280   1.401       .  A
C2279      H2288   1.082       .  S
C2280      C2283   1.377       .  A
N2281      C2282   1.354       .  A
N2281      H2291   1.045       .  S
C2282      C2283   1.393       .  A
C2283      H2289   1.082       .  S
N2284      C2285   1.354       .  A
N2284      H2292   1.045       .  S
C2285      C2286   1.393       .  A
C2286      H2290   1.082       .  S
C2293      C2298   1.385       .  A
C2293      C2294   1.403       .  A
C2293      N2299   1.344       .  A
C2294      C2295   1.402       .  A
C2294      H2305   1.082       .  S
C2295      C2304   1.378       .  A
C2295      C2296   1.385       .  A
C2296      C2297   1.403       .  A
C2296      N2302   1.343       .  A
C2297      C2298   1.402       .  A
C2297      H2306   1.082       .  S
C2298      C2301   1.376       .  A
N2299      C2300   1.354       .  A
N2299      H2309   1.045       .  S
C2300      C2301   1.395       .  A
C2301      H2307   1.083       .  S
N2302      C2303   1.355       .  A
N2302      H2310   1.045       .  S
C2303      C2304   1.394       .  A
C2304      H2308   1.082       .  S
C2311      C2316   1.385       .  A
C2311      C2312   1.402       .  A
C2311      N2317   1.341       .  A
C2312      C2313   1.401       .  A
C2312      H2323   1.082       .  S
C2313      C2322   1.378       .  A
C2313      C2314   1.385       .  A
C2314      C2315   1.401       .  A
C2314      N2320   1.340       .  A
C2315      C2316   1.400       .  A
C2315      H2324   1.082       .  S
C2316      C2319   1.376       .  A
N2317      C2318   1.355       .  A
N2317      H2327   1.045       .  S
C2318      C2319   1.394       .  A
C2319      H2325   1.082       .  S
N2320      C2321   1.355       .  A
N2320      H2328   1.045       .  S
C2321      C2322   1.394       .  A
C2322      H2326   1.083       .  S
C2329      C2334   1.385       .  A
C2329      C2330   1.403       .  A
C2329      N2335   1.343       .  A
C2330      C2331   1.402       .  A
C2330      H2341   1.082       .  S
C2331      C2340   1.378       .  A
C2331      C2332   1.384       .  A
C2332      C2333   1.405       .  A
C2332      N2338   1.344       .  A
C2333      C2334   1.404       .  A
C2333      H2342   1.082       .  S
C2334      C2337   1.381       .  A
N2335      C2336   1.356       .  A
N2335      H2345   1.045       .  S
C2336      C2337   1.396       .  A
C2337      H2343   1.082       .  S
N2338      C2339   1.356       .  A
N2338      H2346   1.045       .  S
C2339      C2340   1.394       .  A
C2340      H2344   1.082       .  S
C2347      C2352   1.384       .  A
C2347      C2348   1.404       .  A
C2347      N2353   1.340       .  A
C2348      C2349   1.401       .  A
C2348      H2359   1.082       .  S
C2349      C2358   1.380       .  A
C2349      C2350   1.384       .  A
C2350      C2351   1.405       .  A
C2350      N2356   1.341       .  A
C2351      C2352   1.402       .  A
C2351      H2360   1.082       .  S
C2352      C2355   1.382       .  A
N2353      C2354   1.356       .  A
N2353      H2363   1.045       .  S
C2354      C2355   1.396       .  A
C2355      H2361   1.082       .  S
N2356      C2357   1.357       .  A
N2356      H2364   1.045       .  S
C2357      C2358   1.395       .  A
C2358      H2362   1.082       .  S
C2365      C2370   1.385       .  A
C2365      C2366   1.400       .  A
C2365      N2371   1.341       .  A
C2366      C2367   1.399       .  A
C2366      H2377   1.082       .  S
C2367      C2376   1.372       .  A
C2367      C2368   1.385       .  A
C2368      C2369   1.404       .  A
C2368      N2374   1.344       .  A
C2369      C2370   1.404       .  A
C2369      H2378   1.082       .  S
C2370      C2373   1.379       .  A
N2371      C2372   1.354       .  A
N2371      H2381   1.045       .  S
C2372      C2373   1.396       .  A
C2373      H2379   1.082       .  S
N2374      C2375   1.355       .  A
N2374      H2382   1.045       .  S
C2375      C2376   1.393       .  A
C2376      H2380   1.083       .  S
C2383      C2388   1.385       .  A
C2383      C2384   1.404       .  A
C2383      N2389   1.343       .  A
C2384      C2385   1.403       .  A
C2384      H2395   1.082       .  S
C2385      C2394   1.378       .  A
C2385      C2386   1.386       .  A
C2386      C2387   1.400       .  A
C2386      N2392   1.341       .  A
C2387      C2388   1.399       .  A
C2387      H2396   1.082       .  S
C2388      C2391   1.374       .  A
N2389      C2390   1.355       .  A
N2389      H2399   1.045       .  S
C2390      C2391   1.392       .  A
C2391      H2397   1.082       .  S
N2392      C2393   1.352       .  A
N2392      H2400   1.045       .  S
C2393      C2394   1.395       .  A
C2394      H2398   1.083       .  S
C2401      C2406   1.385       .  A
C2401      C2402   1.405       .  A
C2401      N2407   1.345       .  A
C2402      C2403   1.403       .  A
C2402      H2413   1.082       .  S
C2403      C2412   1.379       .  A
C2403      C2404   1.385       .  A
C2404      C2405   1.403       .  A
C2404      N2410   1.343       .  A
C2405      C2406   1.403       .  A
C2405      H2414   1.082       .  S
C2406      C2409   1.379       .  A
N2407      C2408   1.356       .  A
N2407      H2417   1.045       .  S
C2408      C2409   1.395       .  A
C2409      H2415   1.082       .  S
N2410      C2411   1.354       .  A
N2410      H2418   1.045       .  S
C2411      C2412   1.394       .  A
C2412      H2416   1.082       .  S
C2419      C2424   1.385       .  A
C2419      C2420   1.403       .  A
C2419      N2425   1.345       .  A
C2420      C2421   1.403       .  A
C2420      H2431   1.082       .  S
C2421      C2430   1.377       .  A
C2421      C2422   1.385       .  A
C2422      C2423   1.400       .  A
C2422      N2428   1.342       .  A
C2423      C2424   1.399       .  A
C2423      H2432   1.082       .  S
C2424      C2427   1.373       .  A
N2425      C2426   1.356       .  A
N2425      H2435   1.045       .  S
C2426      C2427   1.392       .  A
C2427      H2433   1.083       .  S
N2428      C2429   1.353       .  A
N2428      H2436   1.045       .  S
C2429      C2430   1.395       .  A
C2430      H2434   1.083       .  S
C2437      C2442   1.384       .  A
C2437      C2438   1.407       .  A
C2437      N2443   1.349       .  A
C2438      C2439   1.407       .  A
C2438      H2449   1.082       .  S
C2439      C2448   1.380       .  A
C2439      C2440   1.385       .  A
C2440      C2441   1.403       .  A
C2440      N2446   1.345       .  A
C2441      C2442   1.403       .  A
C2441      H2450   1.082       .  S
C2442      C2445   1.376       .  A
N2443      C2444   1.357       .  A
N2443      H2453   1.045       .  S
C2444      C2445   1.396       .  A
C2445      H2451   1.083       .  S
N2446      C2447   1.353       .  A
N2446      H2454   1.045       .  S
C2447      C2448   1.397       .  A
C2448      H2452   1.083       .  S
C2455      C2460   1.384       .  A
C2455      C2456   1.405       .  A
C2455      N2461   1.340       .  A
C2456      C2457   1.402       .  A
C2456      H2467   1.082       .  S
C2457      C2466   1.383       .  A
C2457      C2458   1.384       .  A
C2458      C2459   1.404       .  A
C2458      N2464   1.340       .  A
C2459      C2460   1.401       .  A
C2459      H2468   1.082       .  S
C2460      C2463   1.381       .  A
N2461      C2462   1.357       .  A
N2461      H2471   1.045       .  S
C2462      C2463   1.395       .  A
C2463      H2469   1.082   1_455  S
N2464      C2465   1.357       .  A
N2464      H2472   1.045       .  S
C2465      C2466   1.396       .  A
C2466      H2470   1.082       .  S
C2473      C2478   1.384       .  A
C2473      C2474   1.406       .  A
C2473      N2479   1.345       .  A
C2474      C2475   1.405       .  A
C2474      H2485   1.082       .  S
C2475      C2484   1.381       .  A
C2475      C2476   1.384       .  A
C2476      C2477   1.403       .  A
C2476      N2482   1.343       .  A
C2477      C2478   1.402       .  A
C2477      H2486   1.082       .  S
C2478      C2481   1.378       .  A
N2479      C2480   1.357       .  A
N2479      H2489   1.045       .  S
C2480      C2481   1.396       .  A
C2481      H2487   1.083       .  S
N2482      C2483   1.355       .  A
N2482      H2490   1.045       .  S
C2483      C2484   1.397       .  A
C2484      H2488   1.083       .  S
C2491      C2496   1.385       .  A
C2491      C2492   1.406       .  A
C2491      N2497   1.344       .  A
C2492      C2493   1.404       .  A
C2492      H2503   1.082       .  S
C2493      C2502   1.383       .  A
C2493      C2494   1.384       .  A
C2494      C2495   1.406       .  A
C2494      N2500   1.344       .  A
C2495      C2496   1.404       .  A
C2495      H2504   1.082       .  S
C2496      C2499   1.382       .  A
N2497      C2498   1.356       .  A
N2497      H2507   1.045       .  S
C2498      C2499   1.394       .  A
C2499      H2505   1.082       .  S
N2500      C2501   1.356       .  A
N2500      H2508   1.045       .  S
C2501      C2502   1.396       .  A
C2502      H2506   1.082       .  S
C2509      C2514   1.385       .  A
C2509      C2510   1.401       .  A
C2509      N2515   1.340       .  A
C2510      C2511   1.400       .  A
C2510      H2521   1.083       .  S
C2511      C2520   1.374       .  A
C2511      C2512   1.385       .  A
C2512      C2513   1.403       .  A
C2512      N2518   1.344       .  A
C2513      C2514   1.402       .  A
C2513      H2522   1.082       .  S
C2514      C2517   1.378       .  A
N2515      C2516   1.355       .  A
N2515      H2525   1.045       .  S
C2516      C2517   1.394       .  A
C2517      H2523   1.082       .  S
N2518      C2519   1.355       .  A
N2518      H2526   1.045       .  S
C2519      C2520   1.395       .  A
C2520      H2524   1.083       .  S
C2527      C2532   1.384       .  A
C2527      C2528   1.406       .  A
C2527      N2533   1.345       .  A
C2528      C2529   1.404       .  A
C2528      H2539   1.082       .  S
C2529      C2538   1.381       .  A
C2529      C2530   1.384       .  A
C2530      C2531   1.407       .  A
C2530      N2536   1.346       .  A
C2531      C2532   1.406       .  A
C2531      H2540   1.082       .  S
C2532      C2535   1.383       .  A
N2533      C2534   1.356       .  A
N2533      H2543   1.045       .  S
C2534      C2535   1.398       .  A
C2535      H2541   1.082       .  S
N2536      C2537   1.357       .  A
N2536      H2544   1.045       .  S
C2537      C2538   1.396       .  A
C2538      H2542   1.082       .  S
C2545      C2550   1.385       .  A
C2545      C2546   1.403       .  A
C2545      N2551   1.346       .  A
C2546      C2547   1.403       .  A
C2546      H2557   1.083       .  S
C2547      C2556   1.375       .  A
C2547      C2548   1.385       .  A
C2548      C2549   1.403       .  A
C2548      N2554   1.346       .  A
C2549      C2550   1.404       .  A
C2549      H2558   1.082       .  S
C2550      C2553   1.377       .  A
N2551      C2552   1.355       .  A
N2551      H2561   1.045       .  S
C2552      C2553   1.394       .  A
C2553      H2559   1.082       .  S
N2554      C2555   1.354       .  A
N2554      H2562   1.045       .  S
C2555      C2556   1.394       .  A
C2556      H2560   1.083       .  S
C2563      C2568   1.384       .  A
C2563      C2564   1.404       .  A
C2563      N2569   1.340       .  A
C2564      C2565   1.401       .  A
C2564      H2575   1.082       .  S
C2565      C2574   1.382       .  A
C2565      C2566   1.384       .  A
C2566      C2567   1.405       .  A
C2566      N2572   1.340       .  A
C2567      C2568   1.402       .  A
C2567      H2576   1.082       .  S
C2568      C2571   1.382       .  A
N2569      C2570   1.357       .  A
N2569      H2579   1.045       .  S
C2570      C2571   1.396       .  A
C2571      H2577   1.082       .  S
N2572      C2573   1.357       .  A
N2572      H2580   1.045       .  S
C2573      C2574   1.396       .  A
C2574      H2578   1.082       .  S
C2581      C2586   1.384       .  A
C2581      C2582   1.404       .  A
C2581      N2587   1.344       .  A
C2582      C2583   1.403       .  A
C2582      H2593   1.082       .  S
C2583      C2592   1.378       .  A
C2583      C2584   1.384       .  A
C2584      C2585   1.404       .  A
C2584      N2590   1.344       .  A
C2585      C2586   1.403       .  A
C2585      H2594   1.082       .  S
C2586      C2589   1.377       .  A
N2587      C2588   1.356       .  A
N2587      H2597   1.045       .  S
C2588      C2589   1.396       .  A
C2589      H2595   1.082       .  S
N2590      C2591   1.356       .  A
N2590      H2598   1.045       .  S
C2591      C2592   1.396       .  A
C2592      H2596   1.082       .  S
C2599      C2604   1.385       .  A
C2599      C2600   1.403       .  A
C2599      N2605   1.342       .  A
C2600      C2601   1.402       .  A
C2600      H2611   1.082       .  S
C2601      C2610   1.379       .  A
C2601      C2602   1.385       .  A
C2602      C2603   1.402       .  A
C2602      N2608   1.342       .  A
C2603      C2604   1.401       .  A
C2603      H2612   1.082       .  S
C2604      C2607   1.377       .  A
N2605      C2606   1.355       .  A
N2605      H2615   1.045       .  S
C2606      C2607   1.394       .  A
C2607      H2613   1.082       .  S
N2608      C2609   1.354       .  A
N2608      H2616   1.045       .  S
C2609      C2610   1.394       .  A
C2610      H2614   1.082       .  S
C2617      C2622   1.385       .  A
C2617      C2618   1.405       .  A
C2617      N2623   1.348       .  A
C2618      C2619   1.406       .  A
C2618      H2629   1.082       .  S
C2619      C2628   1.380       .  A
C2619      C2620   1.385       .  A
C2620      C2621   1.403       .  A
C2620      N2626   1.346       .  A
C2621      C2622   1.403       .  A
C2621      H2630   1.082       .  S
C2622      C2625   1.375       .  A
N2623      C2624   1.355       .  A
N2623      H2633   1.045       .  S
C2624      C2625   1.394       .  A
C2625      H2631   1.083       .  S
N2626      C2627   1.354       .  A
N2626      H2634   1.045       .  S
C2627      C2628   1.397       .  A
C2628      H2632   1.082       .  S
C2635      C2640   1.385       .  A
C2635      C2636   1.399       .  A
C2635      N2641   1.339   1_655  A
C2636      C2637   1.398       .  A
C2636      H2647   1.082       .  S
C2637      C2646   1.373       .  A
C2637      C2638   1.385       .  A
C2638      C2639   1.405       .  A
C2638      N2644   1.344       .  A
C2639      C2640   1.404       .  A
C2639      H2648   1.082       .  S
C2640      C2643   1.380   1_655  A
N2641      C2642   1.353       .  A
N2641      H2651   1.045       .  S
C2642      C2643   1.395       .  A
C2643      H2649   1.082       .  S
N2644      C2645   1.356       .  A
N2644      H2652   1.045       .  S
C2645      C2646   1.393       .  A
C2646      H2650   1.083       .  S
C2653      C2658   1.385       .  A
C2653      C2654   1.403       .  A
C2653      N2659   1.344       .  A
C2654      C2655   1.403       .  A
C2654      H2665   1.082       .  S
C2655      C2664   1.378       .  A
C2655      C2656   1.385       .  A
C2656      C2657   1.405       .  A
C2656      N2662   1.344       .  A
C2657      C2658   1.404       .  A
C2657      H2666   1.082       .  S
C2658      C2661   1.379       .  A
N2659      C2660   1.354       .  A
N2659      H2669   1.045       .  S
C2660      C2661   1.395       .  A
C2661      H2667   1.083       .  S
N2662      C2663   1.356       .  A
N2662      H2670   1.045       .  S
C2663      C2664   1.395       .  A
C2664      H2668   1.082       .  S
C2671      C2676   1.384       .  A
C2671      C2672   1.406       .  A
C2671      N2677   1.346       .  A
C2672      C2673   1.405       .  A
C2672      H2683   1.082       .  S
C2673      C2682   1.381       .  A
C2673      C2674   1.384       .  A
C2674      C2675   1.405       .  A
C2674      N2680   1.345       .  A
C2675      C2676   1.404       .  A
C2675      H2684   1.082       .  S
C2676      C2679   1.380       .  A
N2677      C2678   1.356       .  A
N2677      H2687   1.045       .  S
C2678      C2679   1.396       .  A
C2679      H2685   1.083       .  S
N2680      C2681   1.356       .  A
N2680      H2688   1.045       .  S
C2681      C2682   1.397       .  A
C2682      H2686   1.083       .  S
C2689      C2694   1.384       .  A
C2689      C2690   1.403       .  A
C2689      N2695   1.341       .  A
C2690      C2691   1.401       .  A
C2690      H2701   1.082       .  S
C2691      C2700   1.380       .  A
C2691      C2692   1.384       .  A
C2692      C2693   1.408       .  A
C2692      N2698   1.344       .  A
C2693      C2694   1.406       .  A
C2693      H2702   1.082       .  S
C2694      C2697   1.387       .  A
N2695      C2696   1.355       .  A
N2695      H2705   1.045       .  S
C2696      C2697   1.398       .  A
C2697      H2703   1.082       .  S
N2698      C2699   1.357       .  A
N2698      H2706   1.045       .  S
C2699      C2700   1.393       .  A
C2700      H2704   1.083       .  S
C2707      C2712   1.384   1_556  A
C2707      C2708   1.406   1_556  A
C2707      N2713   1.342       .  A
C2708      C2709   1.403       .  A
C2708      H2719   1.082       .  S
C2709      C2718   1.383       .  A
C2709      C2710   1.384       .  A
C2710      C2711   1.407       .  A
C2710      N2716   1.343       .  A
C2711      C2712   1.404       .  A
C2711      H2720   1.082       .  S
C2712      C2715   1.385   1_554  A
N2713      C2714   1.358       .  A
N2713      H2723   1.045       .  S
C2714      C2715   1.397       .  A
C2715      H2721   1.082       .  S
N2716      C2717   1.358       .  A
N2716      H2724   1.045       .  S
C2717      C2718   1.396       .  A
C2718      H2722   1.082       .  S
C2725      C2730   1.385       .  A
C2725      C2726   1.403       .  A
C2725      N2731   1.343       .  A
C2726      C2727   1.402       .  A
C2726      H2737   1.082       .  S
C2727      C2736   1.378       .  A
C2727      C2728   1.384       .  A
C2728      C2729   1.402       .  A
C2728      N2734   1.342       .  A
C2729      C2730   1.401       .  A
C2729      H2738   1.083       .  S
C2730      C2733   1.376       .  A
N2731      C2732   1.354       .  A
N2731      H2741   1.045       .  S
C2732      C2733   1.395       .  A
C2733      H2739   1.083       .  S
N2734      C2735   1.356       .  A
N2734      H2742   1.045       .  S
C2735      C2736   1.395       .  A
C2736      H2740   1.082       .  S
C2743      C2748   1.385       .  A
C2743      C2744   1.402       .  A
C2743      N2749   1.344       .  A
C2744      C2745   1.402       .  A
C2744      H2755   1.082       .  S
C2745      C2754   1.376       .  A
C2745      C2746   1.385       .  A
C2746      C2747   1.404       .  A
C2746      N2752   1.345       .  A
C2747      C2748   1.404       .  A
C2747      H2756   1.082       .  S
C2748      C2751   1.377       .  A
N2749      C2750   1.354       .  A
N2749      H2759   1.045       .  S
C2750      C2751   1.395       .  A
C2751      H2757   1.083       .  S
N2752      C2753   1.355       .  A
N2752      H2760   1.045       .  S
C2753      C2754   1.393       .  A
C2754      H2758   1.083   1_554  S
C2761      C2766   1.385   1_545  A
C2761      C2762   1.402       .  A
C2761      N2767   1.347       .  A
C2762      C2763   1.404       .  A
C2762      H2773   1.082       .  S
C2763      C2772   1.373       .  A
C2763      C2764   1.385   1_545  A
C2764      C2765   1.403       .  A
C2764      N2770   1.348       .  A
C2765      C2766   1.405       .  A
C2765      H2774   1.082       .  S
C2766      C2769   1.374       .  A
N2767      C2768   1.356       .  A
N2767      H2777   1.045       .  S
C2768      C2769   1.397   1_545  A
C2769      H2775   1.083       .  S
N2770      C2771   1.356   1_565  A
N2770      H2778   1.045       .  S
C2771      C2772   1.397       .  A
C2772      H2776   1.083       .  S
C2779      C2784   1.385   1_545  A
C2779      C2780   1.404       .  A
C2779      N2785   1.344       .  A
C2780      C2781   1.404       .  A
C2780      H2791   1.082       .  S
C2781      C2790   1.378       .  A
C2781      C2782   1.385   1_545  A
C2782      C2783   1.398       .  A
C2782      N2788   1.339       .  A
C2783      C2784   1.397       .  A
C2783      H2792   1.083       .  S
C2784      C2787   1.370       .  A
N2785      C2786   1.355       .  A
N2785      H2795   1.045       .  S
C2786      C2787   1.391   1_545  A
C2787      H2793   1.083       .  S
N2788      C2789   1.354   1_565  A
N2788      H2796   1.045       .  S
C2789      C2790   1.396       .  A
C2790      H2794   1.082       .  S
C2797      C2802   1.385       .  A
C2797      C2798   1.404       .  A
C2797      N2803   1.344       .  A
C2798      C2799   1.403       .  A
C2798      H2809   1.082       .  S
C2799      C2808   1.379       .  A
C2799      C2800   1.385       .  A
C2800      C2801   1.403       .  A
C2800      N2806   1.344       .  A
C2801      C2802   1.403       .  A
C2801      H2810   1.082       .  S
C2802      C2805   1.378       .  A
N2803      C2804   1.356       .  A
N2803      H2813   1.045       .  S
C2804      C2805   1.396       .  A
C2805      H2811   1.082       .  S
N2806      C2807   1.355       .  A
N2806      H2814   1.045       .  S
C2807      C2808   1.394       .  A
C2808      H2812   1.082       .  S
C2815      C2820   1.384       .  A
C2815      C2816   1.406       .  A
C2815      N2821   1.345       .  A
C2816      C2817   1.404       .  A
C2816      H2827   1.082       .  S
C2817      C2826   1.382       .  A
C2817      C2818   1.384       .  A
C2818      C2819   1.406       .  A
C2818      N2824   1.345       .  A
C2819      C2820   1.405       .  A
C2819      H2828   1.082       .  S
C2820      C2823   1.383       .  A
N2821      C2822   1.356       .  A
N2821      H2831   1.045       .  S
C2822      C2823   1.396       .  A
C2823      H2829   1.082       .  S
N2824      C2825   1.357       .  A
N2824      H2832   1.045       .  S
C2825      C2826   1.395       .  A
C2826      H2830   1.082       .  S
C2833      C2838   1.385       .  A
C2833      C2834   1.402       .  A
C2833      N2839   1.343       .  A
C2834      C2835   1.402       .  A
C2834      H2845   1.082       .  S
C2835      C2844   1.375       .  A
C2835      C2836   1.384       .  A
C2836      C2837   1.402       .  A
C2836      N2842   1.343       .  A
C2837      C2838   1.402       .  A
C2837      H2846   1.082       .  S
C2838      C2841   1.375       .  A
N2839      C2840   1.354       .  A
N2839      H2849   1.045       .  S
C2840      C2841   1.396       .  A
C2841      H2847   1.083       .  S
N2842      C2843   1.356       .  A
N2842      H2850   1.045       .  S
C2843      C2844   1.395       .  A
C2844      H2848   1.083       .  S
C2851      C2856   1.385       .  A
C2851      C2852   1.403       .  A
C2851      N2857   1.344       .  A
C2852      C2853   1.403       .  A
C2852      H2863   1.082       .  S
C2853      C2862   1.378       .  A
C2853      C2854   1.385       .  A
C2854      C2855   1.401       .  A
C2854      N2860   1.343       .  A
C2855      C2856   1.401       .  A
C2855      H2864   1.082       .  S
C2856      C2859   1.375       .  A
N2857      C2858   1.355       .  A
N2857      H2867   1.045       .  S
C2858      C2859   1.393       .  A
C2859      H2865   1.083       .  S
N2860      C2861   1.354       .  A
N2860      H2868   1.045       .  S
C2861      C2862   1.394       .  A
C2862      H2866   1.082       .  S
C2869      C2874   1.385       .  A
C2869      C2870   1.402       .  A
C2869      N2875   1.343       .  A
C2870      C2871   1.402       .  A
C2870      H2881   1.083       .  S
C2871      C2880   1.376       .  A
C2871      C2872   1.385       .  A
C2872      C2873   1.403       .  A
C2872      N2878   1.345       .  A
C2873      C2874   1.403       .  A
C2873      H2882   1.082       .  S
C2874      C2877   1.377       .  A
N2875      C2876   1.353       .  A
N2875      H2885   1.045       .  S
C2876      C2877   1.394       .  A
C2877      H2883   1.083       .  S
N2878      C2879   1.354       .  A
N2878      H2886   1.045       .  S
C2879      C2880   1.394       .  A
C2880      H2884   1.083       .  S
C2887      C2892   1.384       .  A
C2887      C2888   1.401       .  A
C2887      N2893   1.342       .  A
C2888      C2889   1.401       .  A
C2888      H2899   1.082       .  S
C2889      C2898   1.375       .  A
C2889      C2890   1.385       .  A
C2890      C2891   1.404   1_545  A
C2890      N2896   1.344   1_545  A
C2891      C2892   1.403   1_565  A
C2891      H2900   1.082       .  S
C2892      C2895   1.377   1_545  A
N2893      C2894   1.355       .  A
N2893      H2903   1.045       .  S
C2894      C2895   1.396   1_545  A
C2895      H2901   1.083       .  S
N2896      C2897   1.355   1_565  A
N2896      H2904   1.045       .  S
C2897      C2898   1.394       .  A
C2898      H2902   1.083       .  S
C2905      C2910   1.384       .  A
C2905      C2906   1.405       .  A
C2905      N2911   1.345       .  A
C2906      C2907   1.404       .  A
C2906      H2917   1.082       .  S
C2907      C2916   1.380       .  A
C2907      C2908   1.384       .  A
C2908      C2909   1.406       .  A
C2908      N2914   1.346       .  A
C2909      C2910   1.405       .  A
C2909      H2918   1.082       .  S
C2910      C2913   1.381       .  A
N2911      C2912   1.356       .  A
N2911      H2921   1.045       .  S
C2912      C2913   1.396       .  A
C2913      H2919   1.082       .  S
N2914      C2915   1.356       .  A
N2914      H2922   1.045       .  S
C2915      C2916   1.396       .  A
C2916      H2920   1.082       .  S
C2923      C2928   1.384       .  A
C2923      C2924   1.407       .  A
C2923      N2929   1.346       .  A
C2924      C2925   1.406       .  A
C2924      H2935   1.082       .  S
C2925      C2934   1.383       .  A
C2925      C2926   1.384       .  A
C2926      C2927   1.404       .  A
C2926      N2932   1.344       .  A
C2927      C2928   1.403       .  A
C2927      H2936   1.082       .  S
C2928      C2931   1.379       .  A
N2929      C2930   1.357       .  A
N2929      H2939   1.045       .  S
C2930      C2931   1.395       .  A
C2931      H2937   1.083       .  S
N2932      C2933   1.356       .  A
N2932      H2940   1.045       .  S
C2933      C2934   1.397       .  A
C2934      H2938   1.082       .  S
C2941      C2946   1.385   1_545  A
C2941      C2942   1.403       .  A
C2941      N2947   1.345       .  A
C2942      C2943   1.403       .  A
C2942      H2953   1.082       .  S
C2943      C2952   1.376       .  A
C2943      C2944   1.384       .  A
C2944      C2945   1.404   1_545  A
C2944      N2950   1.345   1_545  A
C2945      C2946   1.404       .  A
C2945      H2954   1.082       .  S
C2946      C2949   1.377       .  A
N2947      C2948   1.355       .  A
N2947      H2957   1.045       .  S
C2948      C2949   1.398   1_545  A
C2949      H2955   1.083       .  S
N2950      C2951   1.356   1_565  A
N2950      H2958   1.045       .  S
C2951      C2952   1.396       .  A
C2952      H2956   1.082       .  S
C2959      C2964   1.385   1_565  A
C2959      C2960   1.403       .  A
C2959      N2965   1.343       .  A
C2960      C2961   1.402       .  A
C2960      H2971   1.082       .  S
C2961      C2970   1.376       .  A
C2961      C2962   1.385   1_565  A
C2962      C2963   1.400       .  A
C2962      N2968   1.340       .  A
C2963      C2964   1.399       .  A
C2963      H2972   1.082       .  S
C2964      C2967   1.373       .  A
N2965      C2966   1.355   1_565  A
N2965      H2975   1.045       .  S
C2966      C2967   1.394       .  A
C2967      H2973   1.083       .  S
N2968      C2969   1.354       .  A
N2968      H2976   1.045       .  S
C2969      C2970   1.395   1_545  A
C2970      H2974   1.083       .  S
C2977      C2982   1.384   1_565  A
C2977      C2978   1.402       .  A
C2977      N2983   1.342       .  A
C2978      C2979   1.401       .  A
C2978      H2989   1.082       .  S
C2979      C2988   1.377       .  A
C2979      C2980   1.384   1_565  A
C2980      C2981   1.406       .  A
C2980      N2986   1.345       .  A
C2981      C2982   1.405       .  A
C2981      H2990   1.082       .  S
C2982      C2985   1.382       .  A
N2983      C2984   1.356   1_565  A
N2983      H2993   1.045       .  S
C2984      C2985   1.396       .  A
C2985      H2991   1.082       .  S
N2986      C2987   1.356   1_545  A
N2986      H2994   1.045       .  S
C2987      C2988   1.395       .  A
C2988      H2992   1.083       .  S
C2995      C3000   1.384       .  A
C2995      C2996   1.404       .  A
C2995      N3001   1.347       .  A
C2996      C2997   1.404       .  A
C2996      H3007   1.082       .  S
C2997      C3006   1.376       .  A
C2997      C2998   1.384       .  A
C2998      C2999   1.404       .  A
C2998      N3004   1.347       .  A
C2999      C3000   1.405       .  A
C2999      H3008   1.082       .  S
C3000      C3003   1.377       .  A
N3001      C3002   1.356       .  A
N3001      H3011   1.045       .  S
C3002      C3003   1.398       .  A
C3003      H3009   1.083       .  S
N3004      C3005   1.356       .  A
N3004      H3012   1.045       .  S
C3005      C3006   1.397       .  A
C3006      H3010   1.083       .  S
C3013      C3018   1.385       .  A
C3013      C3014   1.402       .  A
C3013      N3019   1.342       .  A
C3014      C3015   1.401       .  A
C3014      H3025   1.082       .  S
C3015      C3024   1.376       .  A
C3015      C3016   1.384       .  A
C3016      C3017   1.401       .  A
C3016      N3022   1.342       .  A
C3017      C3018   1.401       .  A
C3017      H3026   1.082       .  S
C3018      C3021   1.375       .  A
N3019      C3020   1.355       .  A
N3019      H3029   1.045       .  S
C3020      C3021   1.394       .  A
C3021      H3027   1.083       .  S
N3022      C3023   1.355       .  A
N3022      H3030   1.045       .  S
C3023      C3024   1.395       .  A
C3024      H3028   1.083       .  S
C3031      C3036   1.384       .  A
C3031      C3032   1.407       .  A
C3031      N3037   1.347       .  A
C3032      C3033   1.407       .  A
C3032      H3043   1.082       .  S
C3033      C3042   1.382       .  A
C3033      C3034   1.385       .  A
C3034      C3035   1.404       .  A
C3034      N3040   1.345       .  A
C3035      C3036   1.404       .  A
C3035      H3044   1.082       .  S
C3036      C3039   1.380       .  A
N3037      C3038   1.358       .  A
N3037      H3047   1.045       .  S
C3038      C3039   1.396       .  A
C3039      H3045   1.082       .  S
N3040      C3041   1.355       .  A
N3040      H3048   1.045       .  S
C3041      C3042   1.397       .  A
C3042      H3046   1.083       .  S
C3049      C3054   1.384       .  A
C3049      C3050   1.404   1_545  A
C3049      N3055   1.339   1_545  A
C3050      C3051   1.400       .  A
C3050      H3061   1.082       .  S
C3051      C3060   1.382       .  A
C3051      C3052   1.384   1_565  A
C3052      C3053   1.404       .  A
C3052      N3058   1.339       .  A
C3053      C3054   1.400       .  A
C3053      H3062   1.082       .  S
C3054      C3057   1.381       .  A
N3055      C3056   1.356   1_565  A
N3055      H3065   1.045       .  S
C3056      C3057   1.395       .  A
C3057      H3063   1.082       .  S
N3058      C3059   1.357       .  A
N3058      H3066   1.045       .  S
C3059      C3060   1.395   1_545  A
C3060      H3064   1.082       .  S
C3067      C3072   1.385   1_565  A
C3067      C3068   1.400       .  A
C3067      N3073   1.340       .  A
C3068      C3069   1.399       .  A
C3068      H3079   1.082       .  S
C3069      C3078   1.373       .  A
C3069      C3070   1.385   1_565  A
C3070      C3071   1.405       .  A
C3070      N3076   1.345       .  A
C3071      C3072   1.404       .  A
C3071      H3080   1.082       .  S
C3072      C3075   1.380       .  A
N3073      C3074   1.354   1_565  A
N3073      H3083   1.045       .  S
C3074      C3075   1.396       .  A
C3075      H3081   1.082       .  S
N3076      C3077   1.356       .  A
N3076      H3084   1.045       .  S
C3077      C3078   1.393   1_545  A
C3078      H3082   1.083       .  S
C3085      C3090   1.385       .  A
C3085      C3086   1.402   1_545  A
C3085      N3091   1.342   1_545  A
C3086      C3087   1.401   1_565  A
C3086      H3097   1.082       .  S
C3087      C3096   1.376   1_545  A
C3087      C3088   1.385       .  A
C3088      C3089   1.399       .  A
C3088      N3094   1.340       .  A
C3089      C3090   1.399       .  A
C3089      H3098   1.083       .  S
C3090      C3093   1.373       .  A
N3091      C3092   1.354   1_565  A
N3091      H3101   1.045       .  S
C3092      C3093   1.394       .  A
C3093      H3099   1.083       .  S
N3094      C3095   1.354       .  A
N3094      H3102   1.045       .  S
C3095      C3096   1.394   1_545  A
C3096      H3100   1.083       .  S
C3103      C3108   1.385   1_545  A
C3103      C3104   1.404       .  A
C3103      N3109   1.344       .  A
C3104      C3105   1.403       .  A
C3104      H3115   1.082       .  S
C3105      C3114   1.378       .  A
C3105      C3106   1.385   1_545  A
C3106      C3107   1.403       .  A
C3106      N3112   1.343       .  A
C3107      C3108   1.402       .  A
C3107      H3116   1.082       .  S
C3108      C3111   1.378       .  A
N3109      C3110   1.355   1_545  A
N3109      H3119   1.045       .  S
C3110      C3111   1.395       .  A
C3111      H3117   1.082       .  S
N3112      C3113   1.354   1_565  A
N3112      H3120   1.045       .  S
C3113      C3114   1.395       .  A
C3114      H3118   1.083       .  S
C3121      C3126   1.385       .  A
C3121      C3122   1.403       .  A
C3121      N3127   1.344       .  A
C3122      C3123   1.403       .  A
C3122      H3133   1.082       .  S
C3123      C3132   1.378       .  A
C3123      C3124   1.385       .  A
C3124      C3125   1.401       .  A
C3124      N3130   1.342       .  A
C3125      C3126   1.401       .  A
C3125      H3134   1.083       .  S
C3126      C3129   1.374       .  A
N3127      C3128   1.355       .  A
N3127      H3137   1.045       .  S
C3128      C3129   1.394       .  A
C3129      H3135   1.083       .  S
N3130      C3131   1.356       .  A
N3130      H3138   1.045       .  S
C3131      C3132   1.395       .  A
C3132      H3136   1.082       .  S
C3139      C3144   1.384       .  A
C3139      C3140   1.405       .  A
C3139      N3145   1.344       .  A
C3140      C3141   1.404       .  A
C3140      H3151   1.082       .  S
C3141      C3150   1.381       .  A
C3141      C3142   1.384       .  A
C3142      C3143   1.406       .  A
C3142      N3148   1.346       .  A
C3143      C3144   1.405       .  A
C3143      H3152   1.082       .  S
C3144      C3147   1.382       .  A
N3145      C3146   1.355       .  A
N3145      H3155   1.045       .  S
C3146      C3147   1.397       .  A
C3147      H3153   1.082       .  S
N3148      C3149   1.357       .  A
N3148      H3156   1.045       .  S
C3149      C3150   1.396       .  A
C3150      H3154   1.082       .  S
C3157      C3162   1.385       .  A
C3157      C3158   1.402       .  A
C3157      N3163   1.342       .  A
C3158      C3159   1.401       .  A
C3158      H3169   1.082       .  S
C3159      C3168   1.378       .  A
C3159      C3160   1.385       .  A
C3160      C3161   1.406       .  A
C3160      N3166   1.345       .  A
C3161      C3162   1.405       .  A
C3161      H3170   1.082       .  S
C3162      C3165   1.381       .  A
N3163      C3164   1.355       .  A
N3163      H3173   1.045       .  S
C3164      C3165   1.397       .  A
C3165      H3171   1.083       .  S
N3166      C3167   1.356       .  A
N3166      H3174   1.045       .  S
C3167      C3168   1.394       .  A
C3168      H3172   1.083       .  S
C3175      C3180   1.385       .  A
C3175      C3176   1.403       .  A
C3175      N3181   1.345       .  A
C3176      C3177   1.403       .  A
C3176      H3187   1.082       .  S
C3177      C3186   1.378       .  A
C3177      C3178   1.385       .  A
C3178      C3179   1.405       .  A
C3178      N3184   1.346       .  A
C3179      C3180   1.404       .  A
C3179      H3188   1.082       .  S
C3180      C3183   1.379       .  A
N3181      C3182   1.354       .  A
N3181      H3191   1.045       .  S
C3182      C3183   1.396       .  A
C3183      H3189   1.083       .  S
N3184      C3185   1.355       .  A
N3184      H3192   1.045       .  S
C3185      C3186   1.396       .  A
C3186      H3190   1.083       .  S
C3193      C3198   1.384   1_556  A
C3193      C3194   1.404   1_556  A
C3193      N3199   1.341       .  A
C3194      C3195   1.402       .  A
C3194      H3205   1.082       .  S
C3195      C3204   1.381       .  A
C3195      C3196   1.384       .  A
C3196      C3197   1.405       .  A
C3196      N3202   1.342       .  A
C3197      C3198   1.403       .  A
C3197      H3206   1.082       .  S
C3198      C3201   1.382   1_554  A
N3199      C3200   1.357       .  A
N3199      H3209   1.045       .  S
C3200      C3201   1.396       .  A
C3201      H3207   1.082       .  S
N3202      C3203   1.357       .  A
N3202      H3210   1.045       .  S
C3203      C3204   1.395       .  A
C3204      H3208   1.082       .  S
C3211      C3216   1.384       .  A
C3211      C3212   1.404       .  A
C3211      N3217   1.344       .  A
C3212      C3213   1.403       .  A
C3212      H3223   1.082       .  S
C3213      C3222   1.378       .  A
C3213      C3214   1.385       .  A
C3214      C3215   1.404       .  A
C3214      N3220   1.344       .  A
C3215      C3216   1.403       .  A
C3215      H3224   1.082       .  S
C3216      C3219   1.379       .  A
N3217      C3218   1.357       .  A
N3217      H3227   1.045       .  S
C3218      C3219   1.395       .  A
C3219      H3225   1.082       .  S
N3220      C3221   1.355       .  A
N3220      H3228   1.045       .  S
C3221      C3222   1.396       .  A
C3222      H3226   1.083       .  S
C3229      C3234   1.385       .  A
C3229      C3230   1.400       .  A
C3229      N3235   1.340       .  A
C3230      C3231   1.399       .  A
C3230      H3241   1.082       .  S
C3231      C3240   1.375       .  A
C3231      C3232   1.385       .  A
C3232      C3233   1.405       .  A
C3232      N3238   1.344       .  A
C3233      C3234   1.404       .  A
C3233      H3242   1.082       .  S
C3234      C3237   1.381       .  A
N3235      C3236   1.354       .  A
N3235      H3245   1.045       .  S
C3236      C3237   1.396       .  A
C3237      H3243   1.082       .  S
N3238      C3239   1.357       .  A
N3238      H3246   1.045       .  S
C3239      C3240   1.393       .  A
C3240      H3244   1.082       .  S
C3247      C3252   1.385       .  A
C3247      C3248   1.404       .  A
C3247      N3253   1.347       .  A
C3248      C3249   1.404       .  A
C3248      H3259   1.082       .  S
C3249      C3258   1.377       .  A
C3249      C3250   1.385       .  A
C3250      C3251   1.406       .  A
C3250      N3256   1.348       .  A
C3251      C3252   1.407       .  A
C3251      H3260   1.082       .  S
C3252      C3255   1.380       .  A
N3253      C3254   1.355       .  A
N3253      H3263   1.045       .  S
C3254      C3255   1.398       .  A
C3255      H3261   1.083   1_554  S
N3256      C3257   1.357       .  A
N3256      H3264   1.045       .  S
C3257      C3258   1.395       .  A
C3258      H3262   1.082       .  S
C3265      C3270   1.384       .  A
C3265      C3266   1.404       .  A
C3265      N3271   1.342       .  A
C3266      C3267   1.402       .  A
C3266      H3277   1.082       .  S
C3267      C3276   1.379       .  A
C3267      C3268   1.385       .  A
C3268      C3269   1.400       .  A
C3268      N3274   1.339       .  A
C3269      C3270   1.399       .  A
C3269      H3278   1.082       .  S
C3270      C3273   1.375       .  A
N3271      C3272   1.356       .  A
N3271      H3281   1.045       .  S
C3272      C3273   1.394       .  A
C3273      H3279   1.082       .  S
N3274      C3275   1.354       .  A
N3274      H3282   1.045       .  S
C3275      C3276   1.395       .  A
C3276      H3280   1.083       .  S
C3283      C3288   1.385       .  A
C3283      C3284   1.400       .  A
C3283      N3289   1.341       .  A
C3284      C3285   1.399       .  A
C3284      H3295   1.082       .  S
C3285      C3294   1.374       .  A
C3285      C3286   1.385       .  A
C3286      C3287   1.408       .  A
C3286      N3292   1.348       .  A
C3287      C3288   1.408       .  A
C3287      H3296   1.082       .  S
C3288      C3291   1.385       .  A
N3289      C3290   1.354       .  A
N3289      H3299   1.045       .  S
C3290      C3291   1.398       .  A
C3291      H3297   1.082       .  S
N3292      C3293   1.357       .  A
N3292      H3300   1.044       .  S
C3293      C3294   1.393       .  A
C3294      H3298   1.083       .  S
C3301      C3306   1.384       .  A
C3301      C3302   1.407       .  A
C3301      N3307   1.345       .  A
C3302      C3303   1.405       .  A
C3302      H3313   1.082       .  S
C3303      C3312   1.384       .  A
C3303      C3304   1.384       .  A
C3304      C3305   1.407       .  A
C3304      N3310   1.345       .  A
C3305      C3306   1.405       .  A
C3305      H3314   1.082       .  S
C3306      C3309   1.384       .  A
N3307      C3308   1.357       .  A
N3307      H3317   1.045       .  S
C3308      C3309   1.396       .  A
C3309      H3315   1.082       .  S
N3310      C3311   1.358       .  A
N3310      H3318   1.045       .  S
C3311      C3312   1.396       .  A
C3312      H3316   1.082       .  S
C3319      C3324   1.385       .  A
C3319      C3320   1.401       .  A
C3319      N3325   1.344       .  A
C3320      C3321   1.402       .  A
C3320      H3331   1.082       .  S
C3321      C3330   1.373       .  A
C3321      C3322   1.385       .  A
C3322      C3323   1.404       .  A
C3322      N3328   1.347       .  A
C3323      C3324   1.405       .  A
C3323      H3332   1.082       .  S
C3324      C3327   1.376       .  A
N3325      C3326   1.354       .  A
N3325      H3335   1.045   1_455  S
C3326      C3327   1.397       .  A
C3327      H3333   1.083       .  S
N3328      C3329   1.357       .  A
N3328      H3336   1.045       .  S
C3329      C3330   1.396       .  A
C3330      H3334   1.083       .  S
C3337      C3342   1.385       .  A
C3337      C3338   1.405       .  A
C3337      N3343   1.346   1_655  A
C3338      C3339   1.405       .  A
C3338      H3349   1.082       .  S
C3339      C3348   1.378       .  A
C3339      C3340   1.385       .  A
C3340      C3341   1.400       .  A
C3340      N3346   1.342       .  A
C3341      C3342   1.400       .  A
C3341      H3350   1.082       .  S
C3342      C3345   1.372   1_655  A
N3343      C3344   1.356       .  A
N3343      H3353   1.045       .  S
C3344      C3345   1.393       .  A
C3345      H3351   1.083       .  S
N3346      C3347   1.355       .  A
N3346      H3354   1.045       .  S
C3347      C3348   1.397       .  A
C3348      H3352   1.082       .  S
C3355      C3360   1.384       .  A
C3355      C3356   1.406       .  A
C3355      N3361   1.344       .  A
C3356      C3357   1.404       .  A
C3356      H3367   1.082       .  S
C3357      C3366   1.381       .  A
C3357      C3358   1.384       .  A
C3358      C3359   1.402       .  A
C3358      N3364   1.341       .  A
C3359      C3360   1.401       .  A
C3359      H3368   1.082       .  S
C3360      C3363   1.377       .  A
N3361      C3362   1.357       .  A
N3361      H3371   1.045       .  S
C3362      C3363   1.394       .  A
C3363      H3369   1.082       .  S
N3364      C3365   1.355       .  A
N3364      H3372   1.045       .  S
C3365      C3366   1.396       .  A
C3366      H3370   1.082       .  S
C3373      C3378   1.385       .  A
C3373      C3374   1.401       .  A
C3373      N3379   1.341       .  A
C3374      C3375   1.400       .  A
C3374      H3385   1.082       .  S
C3375      C3384   1.376       .  A
C3375      C3376   1.385       .  A
C3376      C3377   1.404       .  A
C3376      N3382   1.344       .  A
C3377      C3378   1.403       .  A
C3377      H3386   1.082       .  S
C3378      C3381   1.378       .  A
N3379      C3380   1.354       .  A
N3379      H3389   1.045       .  S
C3380      C3381   1.395       .  A
C3381      H3387   1.082       .  S
N3382      C3383   1.355       .  A
N3382      H3390   1.045       .  S
C3383      C3384   1.392       .  A
C3384      H3388   1.082       .  S
C3391      C3396   1.385       .  A
C3391      C3392   1.404       .  A
C3391      N3397   1.347       .  A
C3392      C3393   1.404       .  A
C3392      H3403   1.082       .  S
C3393      C3402   1.378       .  A
C3393      C3394   1.385       .  A
C3394      C3395   1.405       .  A
C3394      N3400   1.346       .  A
C3395      C3396   1.405       .  A
C3395      H3404   1.082       .  S
C3396      C3399   1.379       .  A
N3397      C3398   1.355       .  A
N3397      H3407   1.045       .  S
C3398      C3399   1.396       .  A
C3399      H3405   1.083       .  S
N3400      C3401   1.355       .  A
N3400      H3408   1.045       .  S
C3401      C3402   1.396       .  A
C3402      H3406   1.083       .  S
C3409      C3414   1.384       .  A
C3409      C3410   1.403       .  A
C3409      N3415   1.347       .  A
C3410      C3411   1.404       .  A
C3410      H3421   1.082       .  S
C3411      C3420   1.376       .  A
C3411      C3412   1.384       .  A
C3412      C3413   1.404       .  A
C3412      N3418   1.347       .  A
C3413      C3414   1.405       .  A
C3413      H3422   1.082       .  S
C3414      C3417   1.376       .  A
N3415      C3416   1.356       .  A
N3415      H3425   1.045   1_455  S
C3416      C3417   1.398       .  A
C3417      H3423   1.083       .  S
N3418      C3419   1.356       .  A
N3418      H3426   1.045       .  S
C3419      C3420   1.398       .  A
C3420      H3424   1.083       .  S
C3427      C3432   1.385       .  A
C3427      C3428   1.401       .  A
C3427      N3433   1.342       .  A
C3428      C3429   1.400       .  A
C3428      H3439   1.082       .  S
C3429      C3438   1.373   1_655  A
C3429      C3430   1.385       .  A
C3430      C3431   1.403       .  A
C3430      N3436   1.343   1_655  A
C3431      C3432   1.403       .  A
C3431      H3440   1.082       .  S
C3432      C3435   1.377       .  A
N3433      C3434   1.355       .  A
N3433      H3443   1.045       .  S
C3434      C3435   1.395       .  A
C3435      H3441   1.082       .  S
N3436      C3437   1.354       .  A
N3436      H3444   1.045       .  S
C3437      C3438   1.393       .  A
C3438      H3442   1.083       .  S
C3445      C3450   1.385       .  A
C3445      C3446   1.404       .  A
C3445      N3451   1.344       .  A
C3446      C3447   1.403       .  A
C3446      H3457   1.082       .  S
C3447      C3456   1.379       .  A
C3447      C3448   1.385       .  A
C3448      C3449   1.403       .  A
C3448      N3454   1.343       .  A
C3449      C3450   1.402       .  A
C3449      H3458   1.082       .  S
C3450      C3453   1.378       .  A
N3451      C3452   1.355       .  A
N3451      H3461   1.045       .  S
C3452      C3453   1.394       .  A
C3453      H3459   1.082       .  S
N3454      C3455   1.355       .  A
N3454      H3462   1.045       .  S
C3455      C3456   1.395       .  A
C3456      H3460   1.082       .  S
C3463      C3468   1.385       .  A
C3463      C3464   1.405       .  A
C3463      N3469   1.346       .  A
C3464      C3465   1.405       .  A
C3464      H3475   1.082       .  S
C3465      C3474   1.379       .  A
C3465      C3466   1.385       .  A
C3466      C3467   1.403       .  A
C3466      N3472   1.344       .  A
C3467      C3468   1.403       .  A
C3467      H3476   1.082       .  S
C3468      C3471   1.378       .  A
N3469      C3470   1.356       .  A
N3469      H3479   1.045       .  S
C3470      C3471   1.395       .  A
C3471      H3477   1.083       .  S
N3472      C3473   1.355       .  A
N3472      H3480   1.045       .  S
C3473      C3474   1.396       .  A
C3474      H3478   1.082       .  S
C3481      C3486   1.385       .  A
C3481      C3482   1.402       .  A
C3481      N3487   1.345       .  A
C3482      C3483   1.402       .  A
C3482      H3493   1.082       .  S
C3483      C3492   1.375       .  A
C3483      C3484   1.385       .  A
C3484      C3485   1.404       .  A
C3484      N3490   1.346       .  A
C3485      C3486   1.404       .  A
C3485      H3494   1.082       .  S
C3486      C3489   1.377       .  A
N3487      C3488   1.354       .  A
N3487      H3497   1.045       .  S
C3488      C3489   1.395       .  A
C3489      H3495   1.083       .  S
N3490      C3491   1.355       .  A
N3490      H3498   1.045       .  S
C3491      C3492   1.395       .  A
C3492      H3496   1.083       .  S
C3499      C3504   1.385       .  A
C3499      C3500   1.402       .  A
C3499      N3505   1.346       .  A
C3500      C3501   1.403       .  A
C3500      H3511   1.082       .  S
C3501      C3510   1.374       .  A
C3501      C3502   1.385       .  A
C3502      C3503   1.404       .  A
C3502      N3508   1.348       .  A
C3503      C3504   1.405       .  A
C3503      H3512   1.082       .  S
C3504      C3507   1.375       .  A
N3505      C3506   1.355       .  A
N3505      H3515   1.045       .  S
C3506      C3507   1.397       .  A
C3507      H3513   1.083       .  S
N3508      C3509   1.356       .  A
N3508      H3516   1.045       .  S
C3509      C3510   1.397       .  A
C3510      H3514   1.083       .  S
C3517      C3522   1.384       .  A
C3517      C3518   1.404       .  A
C3517      N3523   1.345       .  A
C3518      C3519   1.404       .  A
C3518      H3529   1.082       .  S
C3519      C3528   1.377       .  A
C3519      C3520   1.385       .  A
C3520      C3521   1.402       .  A
C3520      N3526   1.344       .  A
C3521      C3522   1.403       .  A
C3521      H3530   1.082       .  S
C3522      C3525   1.376       .  A
N3523      C3524   1.356       .  A
N3523      H3533   1.045       .  S
C3524      C3525   1.396       .  A
C3525      H3531   1.083       .  S
N3526      C3527   1.355       .  A
N3526      H3534   1.045       .  S
C3527      C3528   1.396       .  A
C3528      H3532   1.083       .  S
C3535      C3540   1.384       .  A
C3535      C3536   1.405       .  A
C3535      N3541   1.344       .  A
C3536      C3537   1.404       .  A
C3536      H3547   1.082       .  S
C3537      C3546   1.382       .  A
C3537      C3538   1.384       .  A
C3538      C3539   1.402       .  A
C3538      N3544   1.340       .  A
C3539      C3540   1.400       .  A
C3539      H3548   1.082       .  S
C3540      C3543   1.377       .  A
N3541      C3542   1.357       .  A
N3541      H3551   1.045       .  S
C3542      C3543   1.394       .  A
C3543      H3549   1.083       .  S
N3544      C3545   1.355       .  A
N3544      H3552   1.045       .  S
C3545      C3546   1.396       .  A
C3546      H3550   1.082       .  S
C3553      C3558   1.385       .  A
C3553      C3554   1.403       .  A
C3553      N3559   1.341       .  A
C3554      C3555   1.401       .  A
C3554      H3565   1.083       .  S
C3555      C3564   1.379       .  A
C3555      C3556   1.385       .  A
C3556      C3557   1.403       .  A
C3556      N3562   1.341       .  A
C3557      C3558   1.401       .  A
C3557      H3566   1.082       .  S
C3558      C3561   1.380       .  A
N3559      C3560   1.354       .  A
N3559      H3569   1.045       .  S
C3560      C3561   1.392       .  A
C3561      H3567   1.082       .  S
N3562      C3563   1.354       .  A
N3562      H3570   1.045       .  S
C3563      C3564   1.392       .  A
C3564      H3568   1.083       .  S
C3571      C3576   1.384       .  A
C3571      C3572   1.404   1_556  A
C3571      N3577   1.348       .  A
C3572      C3573   1.406       .  A
C3572      H3583   1.082       .  S
C3573      C3582   1.376       .  A
C3573      C3574   1.385       .  A
C3574      C3575   1.402       .  A
C3574      N3580   1.347       .  A
C3575      C3576   1.404   1_554  A
C3575      H3584   1.082       .  S
C3576      C3579   1.374       .  A
N3577      C3578   1.357       .  A
N3577      H3587   1.045       .  S
C3578      C3579   1.397       .  A
C3579      H3585   1.083       .  S
N3580      C3581   1.355       .  A
N3580      H3588   1.045       .  S
C3581      C3582   1.398       .  A
C3582      H3586   1.083       .  S
C3589      C3594   1.384       .  A
C3589      C3590   1.408       .  A
C3589      N3595   1.346       .  A
C3590      C3591   1.407       .  A
C3590      H3601   1.082       .  S
C3591      C3600   1.385       .  A
C3591      C3592   1.384       .  A
C3592      C3593   1.405       .  A
C3592      N3598   1.343       .  A
C3593      C3594   1.403       .  A
C3593      H3602   1.082       .  S
C3594      C3597   1.380       .  A
N3595      C3596   1.358       .  A
N3595      H3605   1.045       .  S
C3596      C3597   1.396       .  A
C3597      H3603   1.082       .  S
N3598      C3599   1.357       .  A
N3598      H3606   1.045       .  S
C3599      C3600   1.398       .  A
C3600      H3604   1.082       .  S
C3607      C3612   1.385       .  A
C3607      C3608   1.401       .  A
C3607      N3613   1.342       .  A
C3608      C3609   1.401       .  A
C3608      H3619   1.082       .  S
C3609      C3618   1.375       .  A
C3609      C3610   1.385       .  A
C3610      C3611   1.401       .  A
C3610      N3616   1.342       .  A
C3611      C3612   1.401       .  A
C3611      H3620   1.082       .  S
C3612      C3615   1.375       .  A
N3613      C3614   1.354       .  A
N3613      H3623   1.045       .  S
C3614      C3615   1.395       .  A
C3615      H3621   1.083       .  S
N3616      C3617   1.355       .  A
N3616      H3624   1.045       .  S
C3617      C3618   1.394       .  A
C3618      H3622   1.083       .  S
C3625      C3630   1.385       .  A
C3625      C3626   1.403       .  A
C3625      N3631   1.345       .  A
C3626      C3627   1.403       .  A
C3626      H3637   1.082       .  S
C3627      C3636   1.376       .  A
C3627      C3628   1.385       .  A
C3628      C3629   1.402       .  A
C3628      N3634   1.344       .  A
C3629      C3630   1.402       .  A
C3629      H3638   1.082       .  S
C3630      C3633   1.375       .  A
N3631      C3632   1.356       .  A
N3631      H3641   1.045       .  S
C3632      C3633   1.393       .  A
C3633      H3639   1.082       .  S
N3634      C3635   1.355       .  A
N3634      H3642   1.045       .  S
C3635      C3636   1.395       .  A
C3636      H3640   1.083       .  S
C3643      C3648   1.385       .  A
C3643      C3644   1.405       .  A
C3643      N3649   1.343       .  A
C3644      C3645   1.403       .  A
C3644      H3655   1.082       .  S
C3645      C3654   1.381       .  A
C3645      C3646   1.385       .  A
C3646      C3647   1.404       .  A
C3646      N3652   1.342       .  A
C3647      C3648   1.402       .  A
C3647      H3656   1.082       .  S
C3648      C3651   1.381       .  A
N3649      C3650   1.356       .  A
N3649      H3659   1.045       .  S
C3650      C3651   1.393       .  A
C3651      H3657   1.082       .  S
N3652      C3653   1.355       .  A
N3652      H3660   1.045       .  S
C3653      C3654   1.394       .  A
C3654      H3658   1.082       .  S
C3661      C3666   1.384       .  A
C3661      C3662   1.406       .  A
C3661      N3667   1.344       .  A
C3662      C3663   1.404       .  A
C3662      H3673   1.082       .  S
C3663      C3672   1.383       .  A
C3663      C3664   1.384       .  A
C3664      C3665   1.405       .  A
C3664      N3670   1.342       .  A
C3665      C3666   1.403       .  A
C3665      H3674   1.082       .  S
C3666      C3669   1.381       .  A
N3667      C3668   1.358       .  A
N3667      H3677   1.045       .  S
C3668      C3669   1.396       .  A
C3669      H3675   1.082       .  S
N3670      C3671   1.357       .  A
N3670      H3678   1.045       .  S
C3671      C3672   1.396       .  A
C3672      H3676   1.082       .  S
C3679      C3684   1.385       .  A
C3679      C3680   1.404       .  A
C3679      N3685   1.345       .  A
C3680      C3681   1.404       .  A
C3680      H3691   1.082       .  S
C3681      C3690   1.378       .  A
C3681      C3682   1.385       .  A
C3682      C3683   1.402       .  A
C3682      N3688   1.344       .  A
C3683      C3684   1.402       .  A
C3683      H3692   1.082       .  S
C3684      C3687   1.374       .  A
N3685      C3686   1.356       .  A
N3685      H3695   1.045       .  S
C3686      C3687   1.394       .  A
C3687      H3693   1.083       .  S
N3688      C3689   1.356       .  A
N3688      H3696   1.045       .  S
C3689      C3690   1.396       .  A
C3690      H3694   1.082       .  S
C3697      C3702   1.385       .  A
C3697      C3698   1.402       .  A
C3697      N3703   1.341       .  A
C3698      C3699   1.401       .  A
C3698      H3709   1.082       .  S
C3699      C3708   1.376       .  A
C3699      C3700   1.385       .  A
C3700      C3701   1.402       .  A
C3700      N3706   1.341       .  A
C3701      C3702   1.400       .  A
C3701      H3710   1.082       .  S
C3702      C3705   1.376       .  A
N3703      C3704   1.355       .  A
N3703      H3713   1.045       .  S
C3704      C3705   1.394       .  A
C3705      H3711   1.083       .  S
N3706      C3707   1.355       .  A
N3706      H3714   1.045       .  S
C3707      C3708   1.394       .  A
C3708      H3712   1.083       .  S
C3715      C3720   1.385       .  A
C3715      C3716   1.405       .  A
C3715      N3721   1.345       .  A
C3716      C3717   1.405       .  A
C3716      H3727   1.082       .  S
C3717      C3726   1.381       .  A
C3717      C3718   1.385       .  A
C3718      C3719   1.403       .  A
C3718      N3724   1.343       .  A
C3719      C3720   1.402       .  A
C3719      H3728   1.082       .  S
C3720      C3723   1.379       .  A
N3721      C3722   1.356       .  A
N3721      H3731   1.045       .  S
C3722      C3723   1.394       .  A
C3723      H3729   1.082       .  S
N3724      C3725   1.355       .  A
N3724      H3732   1.045       .  S
C3725      C3726   1.397       .  A
C3726      H3730   1.082       .  S
C3733      C3738   1.385       .  A
C3733      C3734   1.402       .  A
C3733      N3739   1.345       .  A
C3734      C3735   1.403       .  A
C3734      H3745   1.082       .  S
C3735      C3744   1.375       .  A
C3735      C3736   1.385       .  A
C3736      C3737   1.406       .  A
C3736      N3742   1.348       .  A
C3737      C3738   1.406       .  A
C3737      H3746   1.082       .  S
C3738      C3741   1.378       .  A
N3739      C3740   1.354       .  A
N3739      H3749   1.045       .  S
C3740      C3741   1.396       .  A
C3741      H3747   1.083       .  S
N3742      C3743   1.356       .  A
N3742      H3750   1.045       .  S
C3743      C3744   1.394       .  A
C3744      H3748   1.083       .  S
C3751      C3756   1.384       .  A
C3751      C3752   1.404       .  A
C3751      N3757   1.341       .  A
C3752      C3753   1.401       .  A
C3752      H3763   1.082       .  S
C3753      C3762   1.381       .  A
C3753      C3754   1.384       .  A
C3754      C3755   1.406       .  A
C3754      N3760   1.342       .  A
C3755      C3756   1.403       .  A
C3755      H3764   1.082       .  S
C3756      C3759   1.383       .  A
N3757      C3758   1.357       .  A
N3757      H3767   1.045       .  S
C3758      C3759   1.396       .  A
C3759      H3765   1.082       .  S
N3760      C3761   1.358       .  A
N3760      H3768   1.045       .  S
C3761      C3762   1.395       .  A
C3762      H3766   1.082       .  S
C3769      C3774   1.385       .  A
C3769      C3770   1.404       .  A
C3769      N3775   1.345       .  A
C3770      C3771   1.403       .  A
C3770      H3781   1.082       .  S
C3771      C3780   1.378       .  A
C3771      C3772   1.384       .  A
C3772      C3773   1.403       .  A
C3772      N3778   1.343       .  A
C3773      C3774   1.402       .  A
C3773      H3782   1.082       .  S
C3774      C3777   1.376       .  A
N3775      C3776   1.355       .  A
N3775      H3785   1.045       .  S
C3776      C3777   1.395       .  A
C3777      H3783   1.083       .  S
N3778      C3779   1.356       .  A
N3778      H3786   1.045       .  S
C3779      C3780   1.396       .  A
C3780      H3784   1.082       .  S
C3787      C3792   1.385       .  A
C3787      C3788   1.403       .  A
C3787      N3793   1.344       .  A
C3788      C3789   1.402       .  A
C3788      H3799   1.082       .  S
C3789      C3798   1.376       .  A
C3789      C3790   1.384       .  A
C3790      C3791   1.403       .  A
C3790      N3796   1.344       .  A
C3791      C3792   1.402       .  A
C3791      H3800   1.082       .  S
C3792      C3795   1.376       .  A
N3793      C3794   1.355       .  A
N3793      H3803   1.045       .  S
C3794      C3795   1.395       .  A
C3795      H3801   1.082       .  S
N3796      C3797   1.356       .  A
N3796      H3804   1.045       .  S
C3797      C3798   1.395       .  A
C3798      H3802   1.082       .  S
C3805      C3810   1.384       .  A
C3805      C3806   1.407       .  A
C3805      N3811   1.346       .  A
C3806      C3807   1.407       .  A
C3806      H3817   1.082       .  S
C3807      C3816   1.384       .  A
C3807      C3808   1.384       .  A
C3808      C3809   1.405       .  A
C3808      N3814   1.345       .  A
C3809      C3810   1.403       .  A
C3809      H3818   1.082       .  S
C3810      C3813   1.379       .  A
N3811      C3812   1.357       .  A
N3811      H3821   1.045       .  S
C3812      C3813   1.395       .  A
C3813      H3819   1.082       .  S
N3814      C3815   1.356       .  A
N3814      H3822   1.045       .  S
C3815      C3816   1.398       .  A
C3816      H3820   1.082       .  S
C3823      C3828   1.384       .  A
C3823      C3824   1.406       .  A
C3823      N3829   1.344       .  A
C3824      C3825   1.405       .  A
C3824      H3835   1.082       .  S
C3825      C3834   1.381       .  A
C3825      C3826   1.385       .  A
C3826      C3827   1.403       .  A
C3826      N3832   1.343       .  A
C3827      C3828   1.402       .  A
C3827      H3836   1.082       .  S
C3828      C3831   1.379       .  A
N3829      C3830   1.357       .  A
N3829      H3839   1.045       .  S
C3830      C3831   1.394       .  A
C3831      H3837   1.082       .  S
N3832      C3833   1.355       .  A
N3832      H3840   1.045       .  S
C3833      C3834   1.397       .  A
C3834      H3838   1.083       .  S
