geometry optimzed in LAMMPS
_audit_creation_date              2020-12-01 
_audit_creation_method            'lammps2cif' 
_symmetry_space_group_name_H-M    'P1' 
_symmetry_Int_Tables_number       1 
_symmetry_cell_setting            triclinic 
loop_ 
_symmetry_equiv_pos_as_xyz 
  x,y,z 
_cell_length_a                    25.91752439 
_cell_length_b                    29.00186203539608 
_cell_length_c                    47.882519296946505 
_cell_angle_alpha                 90.2773154114485 
_cell_angle_beta                  89.60354296454321 
_cell_angle_gamma                 89.43061054752425 
loop_ 
_atom_site_label 
_atom_site_type_symbol 
_atom_site_fract_x 
_atom_site_fract_y 
_atom_site_fract_z 
_atom_site_charge 
O1          O  0.06814951  0.26869723  0.93195305    -0.82200
C2          C  0.16792203  0.12289591  0.87385322     0.95600
O3          O  0.12028157  0.13260388  0.87075590    -0.71300
O4          O  0.08467013  0.13593080  0.92108838    -0.74900
Al5        Al  0.07830287  0.17755119  0.89206358     1.49000
C6          C  0.08041850  0.14511982  0.94655632     0.92400
O7          O  0.19266366  0.20671212  0.94737886    -0.81100
O8          O  0.17615956  0.28114516  0.87960364    -0.74700
Al9        Al  0.13061538  0.23604791  0.93715368     1.90100
O10         O  0.23680843  0.22340563  0.90989638    -0.73800
O11         O  0.14676710  0.21358744  0.84621883    -0.73600
O12         O  0.19858939  0.15375316  0.88161390    -0.79300
O13         O  0.06657655  0.21593090  0.86104439    -0.77500
O14         O  0.13096631  0.21071464  0.90353004    -1.13600
O15         O  0.02503317  0.21290859  0.91257038    -0.72800
C16         C  0.02595228  0.24915217  0.92755709     0.97900
C17         C  0.23524956  0.21352517  0.93553790     0.94300
Al18       Al  0.18514897  0.21730556  0.88106308     1.55600
O19         O  0.09441699  0.18430212  0.95582214    -0.77400
C20         C  0.09902614  0.21936331  0.84149903     0.98500
C21         C  0.17608739  0.30829226  0.90022563     0.93400
O22         O  0.16516822  0.29276244  0.92446364    -0.82700
O23         O  0.85319926  0.72754290  0.07473050    -0.82200
C24         C  0.82714125  0.90285688  0.11858086     0.97200
O25         O  0.80144821  0.86690589  0.11484514    -0.71300
O26         O  0.77475933  0.79481717  0.08576295    -0.74900
Al27       Al  0.82426475  0.80520510  0.11575779     1.49000
C28         C  0.77735643  0.80085527  0.05951154     0.92400
O29         O  0.91391521  0.83638356  0.04007568    -0.81100
O30         O  0.98198003  0.82543263  0.08519631    -0.74700
Al31       Al  0.88378386  0.78507614  0.06103204     1.90100
O32         O  0.91201261  0.89237308  0.07077001    -0.73800
O33         O  0.94095556  0.82741900  0.13590318    -0.73600
O34         O  0.87578573  0.90005174  0.12079151    -0.79300
O35         O  0.86250060  0.81326016  0.15052647    -0.77500
O36         O  0.87731808  0.81587633  0.09317347    -1.13600
O37         O  0.84092823  0.74200491  0.11881067    -0.72800
C38         C  0.84063969  0.71360961  0.09897453     0.97900
C39         C  0.91763477  0.87899477  0.04599453     0.94300
Al40       Al  0.92388278  0.85757416  0.10260847     1.55600
O41         O  0.82046250  0.80560113  0.04794071    -0.77400
C42         C  0.91056868  0.81615780  0.15522748     0.98500
C43         C  0.98796663  0.78617895  0.07381737     0.93400
O44         O  0.94916433  0.76106450  0.07023848    -0.82700
O45         O  0.35732853  0.79954064  0.91939650    -0.82200
C46         C  0.34081568  0.62068772  0.87493764     0.97200
O47         O  0.31156101  0.65213450  0.88395400    -0.71300
O48         O  0.27534549  0.72055330  0.91323262    -0.74900
Al49       Al  0.32302316  0.71594540  0.88208433     1.49000
C50         C  0.28072475  0.72153325  0.93945014     0.92400
O51         O  0.41766594  0.69093306  0.95382694    -0.81100
O52         O  0.48730872  0.70461733  0.90909313    -0.74700
Al53       Al  0.38720473  0.74321937  0.93380890     1.90100
O54         O  0.42184613  0.63637412  0.92147592    -0.73800
O55         O  0.44220492  0.70934664  0.85831663    -0.73600
O56         O  0.38771275  0.62980299  0.87028082    -0.79300
O57         O  0.36022804  0.71284863  0.84605455    -0.77500
O58         O  0.37990409  0.71152149  0.90228442    -1.13600
O59         O  0.32593445  0.78020185  0.87885769    -0.72800
C60         C  0.33588511  0.81076587  0.89668078     0.97900
C61         C  0.42347437  0.64876736  0.94671141     0.94300
Al62       Al  0.43054925  0.67372517  0.89057645     1.55600
O63         O  0.32480677  0.72511637  0.94964568    -0.77400
C64         C  0.40811636  0.71632431  0.84000592     0.98500
C65         C  0.49088484  0.74294164  0.92134122     0.93400
O66         O  0.45103858  0.76751125  0.92312264    -0.82700
O67         O  0.55523640  0.25167712  0.07151624    -0.82200
C68         C  0.65587091  0.40805805  0.11180365     0.97200
O69         O  0.60815728  0.40020282  0.11591439    -0.71300
O70         O  0.56845217  0.38624306  0.06739563    -0.74900
Al71       Al  0.56511476  0.35143893  0.09949068     1.49000
C72         C  0.55992911  0.37134002  0.04333958     0.92400
O73         O  0.66912947  0.31115279  0.04033809    -0.81100
O74         O  0.66866856  0.24855301  0.11414931    -0.74700
Al75       Al  0.61202062  0.28338466  0.05732901     1.90100
O76         O  0.72095191  0.30436148  0.07624576    -0.73800
O77         O  0.63827386  0.32057803  0.14549107    -0.73600
O78         O  0.68589973  0.37575050  0.10477338    -0.79300
O79         O  0.55680222  0.32000561  0.13344200    -0.77500
O80         O  0.61730959  0.31584030  0.08850490    -1.13600
O81         O  0.51029267  0.31187202  0.08378918    -0.72800
C82         C  0.51214043  0.27095977  0.07401187     0.97900
C83         C  0.71396319  0.30823513  0.04999067     0.94300
Al84       Al  0.67403657  0.31267089  0.10868799     1.55600
O85         O  0.56923909  0.32931410  0.03718990    -0.77400
C86         C  0.59050031  0.31845560  0.15220762     0.98500
C87         C  0.66901914  0.21983619  0.09436853     0.93400
O88         O  0.65330585  0.23121378  0.07029952    -0.82700
O89         O  0.95099389  0.26836434  0.56984750    -0.82200
C90         C  0.82968656  0.13622847  0.62555452     0.97200
O91         O  0.87874720  0.13687657  0.62634554    -0.71300
O92         O  0.91387972  0.13873443  0.57615149    -0.74900
Al93       Al  0.92735920  0.17660780  0.60609324     1.49000
C94         C  0.91830563  0.14853611  0.55088059     0.92400
O95         O  0.82190797  0.22401389  0.55107999    -0.81100
O96         O  0.84436310  0.29671107  0.61857451    -0.74700
Al97       Al  0.88594319  0.24465944  0.56239623     1.90100
O98         O  0.77761213  0.24122676  0.58893164    -0.73800
O99         O  0.86924681  0.22969038  0.65294861    -0.73600
O100        O  0.80541538  0.17301350  0.62115486    -0.79300
O101        O  0.94619424  0.20966487  0.63771747    -0.77500
O102        O  0.88063436  0.21849644  0.59581349    -1.13600
O103        O  0.98610371  0.20589608  0.58667446    -0.72800
C104        C  0.99066415  0.24441705  0.57425008     0.97900
C105        C  0.77943655  0.23157870  0.56299041     0.94300
Al106      Al  0.82860878  0.23376367  0.61866722     1.55600
O107        O  0.91466578  0.19024263  0.54315240    -0.77400
C108        C  0.91747025  0.22482203  0.65691566     0.98500
C109        C  0.84637001  0.32229009  0.59743230     0.93400
O110        O  0.85784256  0.30454563  0.57397242    -0.82700
O111        O  0.17454573  0.74080156  0.41929718    -0.82200
C112        C  0.15631240  0.91573516  0.37774041     0.97200
O113        O  0.19012770  0.88512778  0.38211547    -0.71300
O114        O  0.23643840  0.81464885  0.40668202    -0.74900
Al115      Al  0.18141441  0.82102989  0.37896726     1.49000
C116        C  0.23607350  0.82205597  0.43282693     0.92400
O117        O  0.09448545  0.83850325  0.45772995    -0.81100
O118        O  0.02530823  0.81245486  0.41439037    -0.74700
Al119      Al  0.13452233  0.79292598  0.43531483     1.90100
O120        O  0.07747427  0.89110777  0.42646831    -0.73800
O121        O  0.06101547  0.81998048  0.36206581    -0.73600
O122        O  0.10894178  0.90460416  0.37596811    -0.79300
O123        O  0.13929402  0.82681423  0.34524446    -0.77500
O124        O  0.12916857  0.82238258  0.40315321    -1.13600
O125        O  0.17697540  0.75639623  0.37442697    -0.72800
C126        C  0.18343176  0.72816846  0.39410095     0.97900
C127        C  0.07621166  0.87784046  0.45127311     0.94300
Al128      Al  0.07269009  0.85403247  0.39506234     1.55600
O129        O  0.19378533  0.82569116  0.44563507    -0.77400
C130        C  0.09156238  0.81956832  0.34155380     0.98500
C131        C  0.03093202  0.77469884  0.42744539     0.93400
O132        O  0.07515105  0.75685059  0.42943715    -0.82700
O133        O  0.65550127  0.80884099  0.57327991    -0.82200
C134        C  0.67062307  0.63501283  0.61950148     0.97200
O135        O  0.69759466  0.66844548  0.61213884    -0.71300
O136        O  0.73059626  0.73850765  0.58341433    -0.74900
Al137      Al  0.68010397  0.73097151  0.61408169     1.49000
C138        C  0.72738104  0.73255730  0.55709640     0.92400
O139        O  0.58867985  0.69926316  0.54000383    -0.81100
O140        O  0.52036720  0.71661469  0.58235737    -0.74700
Al141      Al  0.62196354  0.75170468  0.55994079     1.90100
O142        O  0.59036170  0.64587327  0.57234275    -0.73800
O143        O  0.56025455  0.71925485  0.63390093    -0.73600
O144        O  0.62241159  0.64151078  0.62323380    -0.79300
O145        O  0.63952816  0.72567877  0.64931926    -0.77500
O146        O  0.62662261  0.72266585  0.59211491    -1.13600
O147        O  0.66923399  0.79480751  0.61765007    -0.72800
C148        C  0.66921927  0.82234447  0.59750404     0.97900
C149        C  0.58484055  0.65704525  0.54733990     0.94300
Al150      Al  0.57714522  0.68418355  0.60235084     1.55600
O151        O  0.68424764  0.72772235  0.54582418    -0.77400
C152        C  0.59072960  0.72740622  0.65361268     0.98500
C153        C  0.51812522  0.75682815  0.57176788     0.93400
O154        O  0.55899379  0.77939540  0.57056240    -0.82700
O155        O  0.44086694  0.25672700  0.43255338    -0.82200
C156        C  0.35178682  0.41339106  0.38070027     0.97200
O157        O  0.39954968  0.40319362  0.37981382    -0.71300
O158        O  0.42710885  0.39176679  0.43099205    -0.74900
Al159      Al  0.43689251  0.35453788  0.39982547     1.49000
C160        C  0.43367990  0.37850958  0.45554661     0.92400
O161        O  0.31904229  0.32247058  0.45164867    -0.81100
O162        O  0.33758567  0.25291089  0.38074254    -0.74700
Al163      Al  0.37985556  0.29140027  0.44038919     1.90100
O164        O  0.27645710  0.31327350  0.41273187    -0.73800
O165        O  0.37510757  0.32231103  0.34975342    -0.73600
O166        O  0.31921360  0.38239783  0.38543956    -0.79300
O167        O  0.45276140  0.32034504  0.36722229    -0.77500
O168        O  0.38264163  0.32109791  0.40804080    -1.13600
O169        O  0.48632233  0.31557503  0.41942251    -0.72800
C170        C  0.48389888  0.27634656  0.43091887     0.97900
C171        C  0.27657405  0.32020720  0.43903762     0.94300
Al172      Al  0.33122416  0.31796802  0.38399951     1.55600
O173        O  0.41959079  0.33805177  0.46239746    -0.77400
C174        C  0.42389673  0.31867939  0.34625556     0.98500
C175        C  0.32989610  0.22575266  0.40082178     0.93400
O176        O  0.34031920  0.23890530  0.42559610    -0.82700
C177        C  0.56888139  0.61897000  0.52857121     0.00900
C178        C  0.52004857  0.62038032  0.51588209     0.03800
C179        C  0.49643071  0.57941584  0.50666275    -0.12300
C180        C  0.52103920  0.53643221  0.51083410     0.23100
C181        C  0.57043127  0.53498869  0.52292713    -0.12900
C182        C  0.59476818  0.57607658  0.53091367     0.04500
C183        C  0.49945313  0.49346705  0.49863422     0.26900
C184        C  0.46263905  0.46650072  0.51292027    -0.13600
C185        C  0.44379133  0.42541452  0.50056669     0.05000
C186        C  0.46216995  0.41120372  0.47403713    -0.09500
C187        C  0.50403339  0.43549510  0.46200630     0.05800
C188        C  0.51994646  0.47763428  0.47316130    -0.13900
Br189      Br  0.60435152  0.47630093  0.52893751    -0.06000
Br190      Br  0.48409558  0.67798043  0.51297775    -0.00300
Br191      Br  0.39545108  0.38789291  0.52052014     0.00100
Br192      Br  0.56910503  0.51481795  0.45288161    -0.04300
Br193      Br  0.66395912  0.57375586  0.54534342     0.00200
Br194      Br  0.43001431  0.58193696  0.48878057    -0.03600
Br195      Br  0.43762799  0.48662238  0.54898191    -0.04500
Br196      Br  0.54395457  0.41001247  0.43148203    -0.00500
C197        C  0.98702074  0.75529153  0.44403134     0.00900
C198        C  0.99323682  0.74614255  0.47301840     0.03800
C199        C  0.94989245  0.73952766  0.49039064    -0.12300
C200        C  0.90014473  0.73774117  0.47896548     0.23100
C201        C  0.89419121  0.74196153  0.44975457    -0.12900
C202        C  0.93722459  0.75177732  0.43246632     0.04500
C203        C  0.85440960  0.73529669  0.49817181     0.26900
C204        C  0.84258649  0.69423603  0.51259177    -0.13600
C205        C  0.80304243  0.69398581  0.53309978     0.05000
C206        C  0.77332792  0.73408211  0.53838401    -0.09500
C207        C  0.78309529  0.77422605  0.52258284     0.05800
C208        C  0.82499919  0.77548237  0.50371999    -0.13900
Br209      Br  0.82668393  0.73551805  0.43364775    -0.06000
Br210      Br  0.06009649  0.74387517  0.49047006    -0.00300
Br211      Br  0.78790859  0.63825170  0.55315547     0.00100
Br212      Br  0.84332900  0.83296842  0.48614802    -0.04300
Br213      Br  0.92826423  0.75917567  0.39279054     0.00200
Br214      Br  0.95817455  0.73669011  0.53051583    -0.03600
Br215      Br  0.88043216  0.63829810  0.50404743    -0.04500
Br216      Br  0.73769111  0.82721074  0.52522897    -0.00500
C217        C  0.28395796  0.82178481  0.44984975     0.00900
C218        C  0.28859983  0.85357218  0.47204169     0.03800
C219        C  0.32171022  0.84416010  0.49462496    -0.12300
C220        C  0.35476760  0.80516266  0.49379512     0.23100
C221        C  0.35514327  0.77698539  0.46963605    -0.12900
C222        C  0.31921759  0.78451539  0.44810105     0.04500
C223        C  0.39276606  0.79658292  0.51677097     0.26900
C224        C  0.43780392  0.82296763  0.51803437    -0.13600
C225        C  0.47538933  0.81420232  0.53856350     0.05000
C226        C  0.47081667  0.77551429  0.55687690    -0.09500
C227        C  0.42309845  0.75165934  0.55702646     0.05800
C228        C  0.38447760  0.76229358  0.53709799    -0.13900
Br229      Br  0.40525177  0.72821157  0.46555315    -0.06000
Br230      Br  0.25354984  0.91225804  0.46963977    -0.00300
Br231      Br  0.53153228  0.85773057  0.54073725     0.00100
Br232      Br  0.32038305  0.72901706  0.53692796    -0.04300
Br233      Br  0.31831062  0.74277776  0.41670417     0.00200
Br234      Br  0.32107907  0.88435345  0.52682721    -0.03600
Br235      Br  0.44910615  0.87011110  0.49022241    -0.04500
Br236      Br  0.40924896  0.70442720  0.58430383    -0.00500
C237        C  0.30544835  0.17960928  0.39520554     0.00900
C238        C  0.26845853  0.17453419  0.37347602     0.03800
C239        C  0.24356207  0.13202205  0.36911081    -0.12300
C240        C  0.25455844  0.09394978  0.38616754     0.23100
C241        C  0.29151027  0.09820067  0.40742304    -0.12900
C242        C  0.31710536  0.14048233  0.41182032     0.04500
C243        C  0.22639941  0.04966036  0.38194355     0.26900
C244        C  0.17907858  0.04214808  0.39574917    -0.13600
C245        C  0.15256556  0.00016862  0.39215865     0.05000
C246        C  0.17423524  0.96449418  0.37533136    -0.09500
C247        C  0.21991607  0.97365420  0.35999722     0.05800
C248        C  0.24597856  0.01576938  0.36347243    -0.13900
Br249      Br  0.30661621  0.04552111  0.43060567    -0.06000
Br250      Br  0.24838567  0.22531907  0.34975827    -0.00300
Br251      Br  0.08740837  0.99237000  0.41097789     0.00100
Br252      Br  0.30956665  0.02678596  0.34356222    -0.04300
Br253      Br  0.37007795  0.14288921  0.43976124     0.00200
Br254      Br  0.19307184  0.12552536  0.33984644    -0.03600
Br255      Br  0.15205020  0.08929463  0.42051311    -0.04500
Br256      Br  0.24620653  0.92897870  0.33332078    -0.00500
C257        C  0.33254751  0.46163502  0.37659416     0.00900
C258        C  0.34789202  0.49774372  0.39464043     0.03800
C259        C  0.32021564  0.53985320  0.39535431    -0.12300
C260        C  0.27909115  0.54767289  0.37686719     0.23100
C261        C  0.26691244  0.51357643  0.35695121    -0.12900
C262        C  0.29281838  0.47044370  0.35715902     0.04500
C263        C  0.24987660  0.59234581  0.37840648     0.26900
C264        C  0.20807950  0.59779749  0.39716695    -0.13600
C265        C  0.18536572  0.64171859  0.40176894     0.05000
C266        C  0.20421482  0.68084651  0.38753214    -0.09500
C267        C  0.24411476  0.67442938  0.36723715     0.05800
C268        C  0.26699352  0.63053156  0.36305070    -0.13900
Br269      Br  0.21472488  0.52616763  0.32946859    -0.06000
Br270      Br  0.40612451  0.49073712  0.41888909    -0.00300
Br271      Br  0.12672861  0.64729127  0.42666000     0.00100
Br272      Br  0.32360482  0.62250238  0.33694136    -0.04300
Br273      Br  0.27500505  0.42373625  0.33013858     0.00200
Br274      Br  0.33742445  0.58690156  0.42237529    -0.03600
Br275      Br  0.18270496  0.54472840  0.41691313    -0.04500
Br276      Br  0.27061412  0.72530798  0.34566310    -0.00500
C277        C  0.79975304  0.09197267  0.62760968     0.00900
C278        C  0.81551521  0.05528838  0.64510176     0.03800
C279        C  0.79041257  0.01204972  0.64377826    -0.12300
C280        C  0.75189533  0.00384973  0.62358833     0.23100
C281        C  0.73449092  0.04089593  0.60716861    -0.12900
C282        C  0.75564774  0.08513181  0.61050772     0.04500
C283        C  0.73098678  0.95637262  0.61847817     0.26900
C284        C  0.76274420  0.92197470  0.60620366    -0.13600
C285        C  0.74281657  0.87801515  0.60021242     0.05000
C286        C  0.68932455  0.86954380  0.60276126    -0.09500
C287        C  0.65751978  0.90370617  0.61521476     0.05800
C288        C  0.67870213  0.94604405  0.62419361    -0.13900
Br289      Br  0.68328866  0.03059959  0.57858832    -0.06000
Br290      Br  0.86861001  0.06499645  0.67244935    -0.00300
Br291      Br  0.79069783  0.82853184  0.59196189     0.00100
Br292      Br  0.63681726  0.98909610  0.64544591    -0.04300
Br293      Br  0.72156463  0.13520478  0.59144652     0.00200
Br294      Br  0.80806920  0.96398336  0.66984487    -0.03600
Br295      Br  0.83390478  0.93478683  0.59734716    -0.04500
Br296      Br  0.58524749  0.89162374  0.62082321    -0.00500
C297        C  0.83048232  0.37221778  0.60069685     0.00900
C298        C  0.82756015  0.39263075  0.62778393     0.03800
C299        C  0.80030631  0.43440832  0.63218278    -0.12300
C300        C  0.78004288  0.45899378  0.60944208     0.23100
C301        C  0.78822903  0.44199326  0.58215931    -0.12900
C302        C  0.81181948  0.39836161  0.57765911     0.04500
C303        C  0.75127260  0.50336661  0.61427642     0.26900
C304        C  0.69688714  0.50462631  0.61404350    -0.13600
C305        C  0.66964253  0.54677674  0.61782819     0.05000
C306        C  0.69684311  0.58854773  0.62197759    -0.09500
C307        C  0.75169130  0.58596379  0.62454679     0.05800
C308        C  0.77843282  0.54403709  0.61981665    -0.13900
Br309      Br  0.76677023  0.47907638  0.55085792    -0.06000
Br310      Br  0.86296840  0.36586067  0.65941509    -0.00300
Br311      Br  0.59522834  0.54579233  0.61627530     0.00100
Br312      Br  0.85308201  0.54223234  0.62001677    -0.04300
Br313      Br  0.81564658  0.37536486  0.53972540     0.00200
Br314      Br  0.78940243  0.45782637  0.66964643    -0.03600
Br315      Br  0.65990866  0.44810742  0.60775496    -0.04500
Br316      Br  0.79210542  0.63870419  0.63578488    -0.00500
C317        C  0.04863868  0.90889556  0.47117123     0.00900
C318        C  0.07439156  0.93084670  0.49327226     0.03800
C319        C  0.05291076  0.97109178  0.50562871    -0.12300
C320        C  0.00579877  0.98935904  0.49575406     0.23100
C321        C  0.97827843  0.96543216  0.47521779    -0.12900
C322        C  0.99876090  0.92468204  0.46367964     0.04500
C323        C  0.98199049  0.03119531  0.50853466     0.26900
C324        C  0.94247800  0.02591639  0.52839093    -0.13600
C325        C  0.91628416  0.06475232  0.53904421     0.05000
C326        C  0.93246591  0.10978473  0.53183258    -0.09500
C327        C  0.97056427  0.11497463  0.51083274     0.05800
C328        C  0.99474365  0.07559612  0.49902361    -0.13900
Br329      Br  0.91248568  0.98915602  0.46254553    -0.06000
Br330      Br  0.13825257  0.90568506  0.50671298    -0.00300
Br331      Br  0.85721954  0.05532696  0.56310298     0.00100
Br332      Br  0.04607407  0.08223480  0.47016449    -0.04300
Br333      Br  0.95675409  0.88995183  0.43821637     0.00200
Br334      Br  0.08778309  0.00162502  0.53583475    -0.03600
Br335      Br  0.92528768  0.96496177  0.54140185    -0.04500
Br336      Br  0.99160849  0.17532086  0.49870689    -0.00500
C337        C  0.73276854  0.23112611  0.54515795     0.00900
C338        C  0.72848895  0.19708922  0.52391348     0.03800
C339        C  0.69009360  0.20101085  0.50341616    -0.12300
C340        C  0.65571306  0.23879930  0.50380313     0.23100
C341        C  0.65914766  0.27235435  0.52509435    -0.12900
C342        C  0.69717417  0.26839598  0.54589468     0.04500
C343        C  0.61401502  0.24213239  0.48270796     0.26900
C344        C  0.62145416  0.26653546  0.45771863    -0.13600
C345        C  0.58030557  0.27242193  0.43887799     0.05000
C346        C  0.53000920  0.25724872  0.44600319    -0.09500
C347        C  0.52392516  0.23010162  0.47058676     0.05800
C348        C  0.56621640  0.22172096  0.48824440    -0.13900
Br349      Br  0.61268928  0.32482440  0.52491249    -0.06000
Br350      Br  0.77487259  0.14437486  0.52255305    -0.00300
Br351      Br  0.59426909  0.29972733  0.40292892     0.00100
Br352      Br  0.55879955  0.18350668  0.52104915    -0.04300
Br353      Br  0.70197885  0.31599766  0.57405728     0.00200
Br354      Br  0.68498727  0.15509309  0.47426073    -0.03600
Br355      Br  0.68781362  0.29342906  0.45002815    -0.04500
Br356      Br  0.45819087  0.20633260  0.48267120    -0.00500
C357        C  0.22796251  0.32171246  0.45648833     0.00900
C358        C  0.18442661  0.29441837  0.45013609     0.03800
C359        C  0.14562774  0.28710041  0.47061367    -0.12300
C360        C  0.15154025  0.30393041  0.49816405     0.23100
C361        C  0.19299470  0.33354995  0.50387396    -0.12900
C362        C  0.22852437  0.34485215  0.48260216     0.04500
C363        C  0.11489276  0.28981401  0.52102837     0.26900
C364        C  0.07935458  0.32170456  0.53272125    -0.13600
C365        C  0.04477722  0.30793621  0.55393059     0.05000
C366        C  0.04041083  0.26070463  0.56133576    -0.09500
C367        C  0.07830538  0.22932247  0.55087012     0.05800
C368        C  0.11597917  0.24426245  0.53140237    -0.13900
Br369      Br  0.20349749  0.35646090  0.54131356    -0.06000
Br370      Br  0.17750776  0.26530913  0.41410320    -0.00300
Br371      Br  0.00485667  0.35488933  0.57351190     0.00100
Br372      Br  0.16889872  0.20197436  0.51825881    -0.04300
Br373      Br  0.27527006  0.39511913  0.48859771     0.00200
Br374      Br  0.08442607  0.25326639  0.46114204    -0.03600
Br375      Br  0.07538209  0.38381738  0.51843395    -0.04500
Br376      Br  0.07868224  0.16532531  0.56180927    -0.00500
C377        C  0.57170916  0.31692006  0.18199071     0.00900
C378        C  0.53211607  0.34799997  0.19083615     0.03800
C379        C  0.50810770  0.34335165  0.21721375    -0.12300
C380        C  0.52443181  0.30894611  0.23592636     0.23100
C381        C  0.56532591  0.27897429  0.22776011    -0.12900
C382        C  0.58849018  0.28260538  0.20084783     0.04500
C383        C  0.50086687  0.30763656  0.26480847     0.26900
C384        C  0.51920139  0.33768357  0.28559146    -0.13600
C385        C  0.49351138  0.34184395  0.31163900     0.05000
C386        C  0.44904693  0.31515230  0.31776194    -0.09500
C387        C  0.43112177  0.28448896  0.29694140     0.05800
C388        C  0.45680413  0.28090082  0.27067112    -0.13900
Br389      Br  0.58938906  0.23293659  0.25356061    -0.06000
Br390      Br  0.51213836  0.39947558  0.16772107    -0.00300
Br391      Br  0.51837058  0.38735816  0.33778388     0.00100
Br392      Br  0.43149145  0.23967040  0.24234330    -0.04300
Br393      Br  0.64178189  0.23951382  0.18947913     0.00200
Br394      Br  0.45232866  0.38456355  0.22802041    -0.03600
Br395      Br  0.57930779  0.37450612  0.27775167    -0.04500
Br396      Br  0.37238136  0.24617564  0.30449313    -0.00500
C397        C  0.42566309  0.72615496  0.81100028     0.00900
C398        C  0.41697389  0.69397078  0.78935815     0.03800
C399        C  0.44205799  0.69878083  0.76323502    -0.12300
C400        C  0.47596009  0.73580140  0.75849323     0.23100
C401        C  0.48193038  0.76956399  0.77950051    -0.12900
C402        C  0.45730179  0.76455280  0.80570773     0.04500
C403        C  0.50796673  0.73737442  0.73229587     0.26900
C404        C  0.55519380  0.71279410  0.73068173    -0.13600
C405        C  0.58447580  0.71185407  0.70561909     0.05000
C406        C  0.56701007  0.73601006  0.68182881    -0.09500
C407        C  0.52070080  0.76248449  0.68403549     0.05800
C408        C  0.49108570  0.76249483  0.70892878    -0.13900
Br409      Br  0.52516779  0.82202284  0.77251437    -0.06000
Br410      Br  0.37418896  0.64108116  0.79621940    -0.00300
Br411      Br  0.64607283  0.67408675  0.70356939     0.00100
Br412      Br  0.42582554  0.79508513  0.71069636    -0.04300
Br413      Br  0.46751485  0.81001190  0.83466891     0.00200
Br414      Br  0.43174152  0.65364827  0.73414620    -0.03600
Br415      Br  0.57822404  0.67834676  0.76271608    -0.04500
Br416      Br  0.49720495  0.79930350  0.65295021    -0.00500
C417        C  0.53534853  0.40457125  0.02420977     0.00900
C418        C  0.56304559  0.42325813  0.00158835     0.03800
C419        C  0.54643141  0.46522443  0.98952138    -0.12300
C420        C  0.50292411  0.48884461  0.00062159     0.23100
C421        C  0.47538914  0.46999494  0.02308172    -0.12900
C422        C  0.49001629  0.42717676  0.03385945     0.04500
C423        C  0.48229038  0.53146672  0.98775274     0.26900
C424        C  0.50217716  0.57506657  0.99491777    -0.13600
C425        C  0.47863770  0.61541253  0.98447022     0.05000
C426        C  0.43554474  0.61208934  0.96690758    -0.09500
C427        C  0.41224177  0.56903392  0.96284553     0.05800
C428        C  0.43675276  0.52867307  0.97196262    -0.13900
Br429      Br  0.41876027  0.50431099  0.04004685    -0.06000
Br430      Br  0.62465187  0.39247247  0.98818611    -0.00300
Br431      Br  0.50424339  0.67491068  0.99468805     0.00100
Br432      Br  0.40810383  0.46941411  0.96260863    -0.04300
Br433      Br  0.44734277  0.40009293  0.06228319     0.00200
Br434      Br  0.58434708  0.49158201  0.95885641    -0.03600
Br435      Br  0.56161268  0.57944681  0.01873547    -0.04500
Br436      Br  0.34489318  0.56634800  0.94617007    -0.00500
C437        C  0.06978371  0.81316389  0.31314170     0.00900
C438        C  0.07180559  0.84931936  0.29353418     0.03800
C439        C  0.04469066  0.84600195  0.26813149    -0.12300
C440        C  0.01488801  0.80673482  0.26215630     0.23100
C441        C  0.01338588  0.77032080  0.28156272    -0.12900
C442        C  0.04088867  0.77342555  0.30687018     0.04500
C443        C  0.98490488  0.80428478  0.23556681     0.26900
C444        C  0.93599728  0.82580408  0.23363547    -0.13600
C445        C  0.91005068  0.82784154  0.20777153     0.05000
C446        C  0.93270668  0.80784478  0.18354478    -0.09500
C447        C  0.98032226  0.78371179  0.18603939     0.05800
C448        C  0.00632910  0.78231563  0.21182864    -0.13900
Br449      Br  0.97220133  0.71684913  0.27373543    -0.06000
Br450      Br  0.10839380  0.90507999  0.30231734    -0.00300
Br451      Br  0.84539341  0.86112714  0.20555320     0.00100
Br452      Br  0.07232334  0.75131644  0.21460408    -0.04300
Br453      Br  0.03947008  0.72295311  0.33297483     0.00200
Br454      Br  0.04677852  0.89604624  0.24174450    -0.03600
Br455      Br  0.90546715  0.85375060  0.26653320    -0.04500
Br456      Br  0.01016906  0.75154487  0.15423936    -0.00500
C457        C  0.23557099  0.72130840  0.95904378     0.00900
C458        C  0.24124310  0.70354268  0.98650387     0.03800
C459        C  0.20314843  0.71229346  0.00705916    -0.12300
C460        C  0.15671559  0.73469777  0.99993203     0.23100
C461        C  0.14887065  0.74851029  0.97205617    -0.12900
C462        C  0.18881025  0.74402230  0.95205335     0.04500
C463        C  0.11771046  0.74664531  0.02202633     0.26900
C464        C  0.08545191  0.71264316  0.03340101    -0.13600
C465        C  0.04721967  0.72475851  0.05332165     0.05000
C466        C  0.03859291  0.77166651  0.06087257    -0.09500
C467        C  0.07428933  0.80508097  0.05115192     0.05800
C468        C  0.11357141  0.79233801  0.03196793    -0.13900
Br469      Br  0.08357827  0.77491672  0.96134984    -0.06000
Br470      Br  0.30061374  0.66643119  0.99661417    -0.00300
Br471      Br  0.00834297  0.67603750  0.07080290     0.00100
Br472      Br  0.16149161  0.83794271  0.01846293    -0.04300
Br473      Br  0.18032907  0.77416752  0.91640084     0.00200
Br474      Br  0.21582384  0.69606976  0.04552064    -0.03600
Br475      Br  0.09245054  0.64949205  0.02081986    -0.04500
Br476      Br  0.06992978  0.86917841  0.06243623    -0.00500
C477        C  0.73087933  0.80005981  0.04118279     0.00900
C478        C  0.68739332  0.77291779  0.04792296     0.03800
C479        C  0.64757803  0.76723359  0.02828699    -0.12300
C480        C  0.65232719  0.78546580  0.00114045     0.23100
C481        C  0.69471204  0.81333608  0.99457512    -0.12900
C482        C  0.73242085  0.82249955  0.01479538     0.04500
C483        C  0.61312686  0.77545489  0.97928170     0.26900
C484        C  0.61521009  0.73368203  0.96424364    -0.13600
C485        C  0.57776206  0.72367494  0.94380016     0.05000
C486        C  0.53829590  0.75665338  0.93742641    -0.09500
C487        C  0.54005939  0.80055273  0.95096943     0.05800
C488        C  0.57585319  0.80892935  0.97241731    -0.13900
Br489      Br  0.70181749  0.83786174  0.95728215    -0.06000
Br490      Br  0.68253922  0.74034898  0.08299878    -0.00300
Br491      Br  0.58063577  0.66308689  0.92667778     0.00100
Br492      Br  0.57340553  0.86620435  0.99326875    -0.04300
Br493      Br  0.78458600  0.86762466  0.00584926     0.00200
Br494      Br  0.58636129  0.73435727  0.03868828    -0.03600
Br495      Br  0.66941468  0.68958066  0.97240944    -0.04500
Br496      Br  0.49497732  0.85122204  0.94052988    -0.00500
C497        C  0.80006254  0.94864033  0.11865624     0.00900
C498        C  0.76059151  0.95770468  0.09887360     0.03800
C499        C  0.74038944  0.00256453  0.09573771    -0.12300
C500        C  0.75531174  0.03802911  0.11396652     0.23100
C501        C  0.79187818  0.02871005  0.13494019    -0.12900
C502        C  0.81530354  0.98462944  0.13678642     0.04500
C503        C  0.73362595  0.08535456  0.11016618     0.26900
C504        C  0.76389418  0.11962174  0.09748521    -0.13600
C505        C  0.74294506  0.16381678  0.09282158     0.05000
C506        C  0.69068832  0.17332896  0.09927431    -0.09500
C507        C  0.66041031  0.13926579  0.11203566     0.05800
C508        C  0.68194602  0.09550538  0.11775499    -0.13900
Br509      Br  0.81010380  0.07680782  0.16093919    -0.06000
Br510      Br  0.73519343  0.91044770  0.07420417    -0.00300
Br511      Br  0.78719404  0.21177372  0.07912301     0.00100
Br512      Br  0.64069270  0.04929012  0.13586307    -0.04300
Br513      Br  0.86705105  0.97377974  0.16482948     0.00200
Br514      Br  0.69471548  0.01652526  0.06501066    -0.03600
Br515      Br  0.83388050  0.10571363  0.08587037    -0.04500
Br516      Br  0.58958163  0.15301706  0.12182377    -0.00500
C517        C  0.67904315  0.45455487  0.11521705     0.00900
C518        C  0.72511488  0.45859452  0.13070454     0.03800
C519        C  0.75552897  0.49848039  0.12861643    -0.12300
C520        C  0.73910240  0.53579413  0.11205575     0.23100
C521        C  0.69146238  0.53320310  0.09807815    -0.12900
C522        C  0.66191384  0.49254678  0.09923836     0.04500
C523        C  0.77051199  0.57870404  0.11022304     0.26900
C524        C  0.76632626  0.61225796  0.13133317    -0.13600
C525        C  0.79160140  0.65493469  0.12867820     0.05000
C526        C  0.82117685  0.66522585  0.10408900    -0.09500
C527        C  0.82796895  0.62950434  0.08383635     0.05800
C528        C  0.80284309  0.58668717  0.08703484    -0.13900
Br529      Br  0.66734394  0.58559783  0.07695985    -0.06000
Br530      Br  0.74630445  0.40951243  0.15538765    -0.00300
Br531      Br  0.78266352  0.69783285  0.15954509     0.00100
Br532      Br  0.81231353  0.53821564  0.05961726    -0.04300
Br533      Br  0.60006443  0.48856748  0.07736308     0.00200
Br534      Br  0.82049251  0.50163059  0.14792310    -0.03600
Br535      Br  0.72415587  0.59948726  0.16388566    -0.04500
Br536      Br  0.87252230  0.63711558  0.05171038    -0.00500
C537        C  0.08002751  0.22707100  0.81278962     0.00900
C538        C  0.08957255  0.19368472  0.79174140     0.03800
C539        C  0.06536387  0.19767316  0.76556586    -0.12300
C540        C  0.03119300  0.23476350  0.76037853     0.23100
C541        C  0.02359246  0.26916189  0.78089725    -0.12900
C542        C  0.04740821  0.26509478  0.80712648     0.04500
C543        C  0.00026521  0.23586911  0.73426714     0.26900
C544        C  0.02084008  0.25482172  0.70966583    -0.13600
C545        C  0.99176471  0.25470049  0.68489812     0.05000
C546        C  0.94212267  0.23444802  0.68433230    -0.09500
C547        C  0.92084078  0.21716763  0.70940258     0.05800
C548        C  0.94986397  0.21797607  0.73422792    -0.13900
Br549      Br  0.97937460  0.32131311  0.77307273    -0.06000
Br550      Br  0.13157065  0.13993107  0.79951817    -0.00300
Br551      Br  0.02031393  0.28318169  0.65184215     0.00100
Br552      Br  0.92162800  0.19272936  0.76822639    -0.04300
Br553      Br  0.03438552  0.31129491  0.83549649     0.00200
Br554      Br  0.07744212  0.15144211  0.73707016    -0.03600
Br555      Br  0.08968893  0.27967568  0.70987337    -0.04500
Br556      Br  0.85359543  0.18925522  0.70976168    -0.00500
C557        C  0.05428671  0.10948903  0.96374052     0.00900
C558        C  0.07694984  0.09001780  0.98771389     0.03800
C559        C  0.05590131  0.04962051  0.99958787    -0.12300
C560        C  0.01347892  0.02779728  0.98690843     0.23100
C561        C  0.99089525  0.04734618  0.96318620    -0.12900
C562        C  0.00908507  0.08919796  0.95274975     0.04500
C563        C  0.98715129  0.98830230  0.00035152     0.26900
C564        C  0.00063816  0.94234526  0.99355307    -0.13600
C565        C  0.97325820  0.90546870  0.00563975     0.05000
C566        C  0.93350310  0.91449572  0.02531311    -0.09500
C567        C  0.91661954  0.96062523  0.02939338     0.05800
C568        C  0.94366848  0.99724042  0.01731530    -0.13900
Br569      Br  0.93439751  0.01641696  0.94499070    -0.06000
Br570      Br  0.13622183  0.11834411  0.00424487    -0.00300
Br571      Br  0.98987889  0.84317154  0.99475865     0.00100
Br572      Br  0.92093213  0.06013787  0.02379418    -0.04300
Br573      Br  0.96818332  0.12006471  0.92484755     0.00200
Br574      Br  0.08499017  0.02366151  0.03300799    -0.03600
Br575      Br  0.05661070  0.93023147  0.96772462    -0.04500
Br576      Br  0.85474290  0.97418887  0.05049437    -0.00500
C577        C  0.19319172  0.35732717  0.89535347     0.00900
C578        C  0.19967088  0.37398899  0.86747235     0.03800
C579        C  0.22614998  0.41532118  0.86231087    -0.12300
C580        C  0.24246436  0.44308608  0.88456580     0.23100
C581        C  0.23204639  0.42940471  0.91219979    -0.12900
C582        C  0.20837597  0.38662284  0.91776085     0.04500
C583        C  0.26924661  0.48745695  0.87877139     0.26900
C584        C  0.32343250  0.49015553  0.88030419    -0.13600
C585        C  0.34839459  0.53294878  0.87693872     0.05000
C586        C  0.31900618  0.57337080  0.87123668    -0.09500
C587        C  0.26545614  0.56878741  0.86600972     0.05800
C588        C  0.24053073  0.52665243  0.87090343    -0.13900
Br589      Br  0.25088537  0.46978317  0.94253465    -0.06000
Br590      Br  0.17060521  0.34323317  0.83527112    -0.00300
Br591      Br  0.42223843  0.53513876  0.88174307     0.00100
Br592      Br  0.16645754  0.52284671  0.86759670    -0.04300
Br593      Br  0.19848151  0.36971020  0.95644005     0.00200
Br594      Br  0.24160014  0.43389873  0.82441268    -0.03600
Br595      Br  0.36306404  0.43480503  0.88743766    -0.04500
Br596      Br  0.22586647  0.61929639  0.85049357    -0.00500
C597        C  0.18936664  0.07544652  0.86947983     0.00900
C598        C  0.16334386  0.03612327  0.87964889     0.03800
C599        C  0.19022285  0.99389353  0.88257937    -0.12300
C600        C  0.24299257  0.99052044  0.87546221     0.23100
C601        C  0.26781807  0.02843499  0.86324105    -0.12900
C602        C  0.24073326  0.07022534  0.85949845     0.04500
C603        C  0.27192178  0.94675012  0.88054910     0.26900
C604        C  0.28753322  0.93517143  0.90774482    -0.13600
C605        C  0.30952520  0.89144761  0.91325544     0.05000
C606        C  0.31908291  0.85959304  0.89102522    -0.09500
C607        C  0.30711361  0.87358794  0.86325258     0.05800
C608        C  0.28190570  0.91600997  0.85837997    -0.13900
Br609      Br  0.33973715  0.02366230  0.85267265    -0.06000
Br610      Br  0.09164469  0.03902335  0.89057482    -0.00300
Br611      Br  0.32217448  0.87588610  0.95187615     0.00100
Br612      Br  0.25860831  0.93156692  0.82127220    -0.04300
Br613      Br  0.27393962  0.11974052  0.83957175     0.00200
Br614      Br  0.15541601  0.94053187  0.89730597    -0.03600
Br615      Br  0.27702599  0.97938245  0.93765902    -0.04500
Br616      Br  0.32534954  0.83643149  0.83086238    -0.00500
C617        C  0.46655258  0.24849307  0.06048869     0.00900
C618        C  0.47484039  0.21399929  0.03949369     0.03800
C619        C  0.43759984  0.20672993  0.01879593    -0.12300
C620        C  0.38937889  0.22894775  0.02064992     0.23100
C621        C  0.37747865  0.25660586  0.04417187    -0.12900
C622        C  0.41597892  0.26652785  0.06404015     0.04500
C623        C  0.35200525  0.22355550  0.99745690     0.26900
C624        C  0.34849344  0.25775959  0.97669341    -0.13600
C625        C  0.31361270  0.25272031  0.95446965     0.05000
C626        C  0.28216776  0.21329129  0.95295338    -0.09500
C627        C  0.28979312  0.17710537  0.97203647     0.05800
C628        C  0.32345324  0.18266117  0.99469320    -0.13900
Br629      Br  0.30868278  0.28164837  0.04854523    -0.06000
Br630      Br  0.53519555  0.17401743  0.03853459    -0.00300
Br631      Br  0.30884934  0.30034723  0.92660790     0.00100
Br632      Br  0.32985594  0.13456665  0.02215817    -0.04300
Br633      Br  0.39793500  0.30138754  0.09713862     0.00200
Br634      Br  0.45381404  0.16845214  0.98661454    -0.03600
Br635      Br  0.39141809  0.31171682  0.97893057    -0.04500
Br636      Br  0.25665079  0.11876286  0.96568394    -0.00500
C637        C  0.97879465  0.26595109  0.94288576     0.00900
C638        C  0.97998308  0.27121463  0.97244126     0.03800
C639        C  0.93479409  0.28242417  0.98757369    -0.12300
C640        C  0.88810610  0.29059571  0.97359604     0.23100
C641        C  0.88699467  0.28749862  0.94411949    -0.12900
C642        C  0.93193790  0.27453042  0.92887245     0.04500
C643        C  0.83993169  0.29781663  0.99053367     0.26900
C644        C  0.80613304  0.26065279  0.99451475    -0.13600
C645        C  0.76381791  0.26508199  0.01294492     0.05000
C646        C  0.75756726  0.30514515  0.02971537    -0.09500
C647        C  0.79075839  0.34266355  0.02546936     0.05800
C648        C  0.83102703  0.33944469  0.00542675    -0.13900
Br649      Br  0.82348894  0.30023563  0.92478326    -0.06000
Br650      Br  0.04206767  0.26089586  0.99360421    -0.00300
Br651      Br  0.71470499  0.21558604  0.01470226     0.00100
Br652      Br  0.87476150  0.39162704  0.99864527    -0.04300
Br653      Br  0.92964303  0.26963495  0.88874697     0.00200
Br654      Br  0.93592357  0.28370013  0.02803914    -0.03600
Br655      Br  0.81971485  0.20233074  0.97600765    -0.04500
Br656      Br  0.77976473  0.39877621  0.04653614    -0.00500
loop_ 
_geom_bond_atom_site_label_1 
_geom_bond_atom_site_label_2 
_geom_bond_distance 
_geom_bond_site_symmetry_2 
_ccdc_geom_bond_type 
O1           C16   1.255       .  A
O1           Al9   1.886       .  S
C2           O12   1.259       .  A
C2            O3   1.274       .  A
C2          C597   1.492       .  S
O3           Al5   1.967       .  S
O4            C6   1.251       .  A
O4           Al5   1.852       .  S
Al5          O13   1.885       .  S
Al5          O15   1.966       .  S
Al5          O14   1.767       .  S
C6           O19   1.275       .  A
C6          C557   1.489       .  S
O7           C17   1.255       .  A
O7           Al9   1.881       .  S
O8           C21   1.260       .  A
O8          Al18   1.865       .  S
Al9          O22   1.977       .  S
Al9          O19   1.990       .  S
Al9          O14   1.766       .  S
O10          C17   1.263       .  A
O10         Al18   1.939       .  S
O11          C20   1.269       .  A
O11         Al18   1.951       .  S
O12         Al18   1.873       .  S
O13          C20   1.259       .  A
O14         Al18   1.775       .  S
O15          C16   1.270       .  A
C16         C637   1.497   1_455  S
C17         C626   1.479       .  S
C20         C537   1.481       .  S
C21          O22   1.278       .  A
C21         C577   1.512       .  S
O23          C38   1.272       .  A
O23         Al31   1.968       .  S
C24          O34   1.268       .  A
C24          O25   1.255       .  A
C24         C497   1.496       .  S
O25         Al27   1.880       .  S
O26          C28   1.271       .  A
O26         Al27   1.957       .  S
Al27         O35   1.958       .  S
Al27         O37   1.886       .  S
Al27         O36   1.774       .  S
C28          O41   1.253       .  A
C28         C477   1.496       .  S
O29          C39   1.271       .  A
O29         Al31   1.964       .  S
O30          C43   1.267       .  A
O30         Al40   1.944       .  S
Al31         O44   1.882       .  S
Al31         O41   1.854       .  S
Al31         O36   1.782       .  S
O32          C39   1.253       .  A
O32         Al40   1.858       .  S
O33          C42   1.257       .  A
O33         Al40   1.876       .  S
O34         Al40   1.943       .  S
O35          C42   1.271       .  A
O36         Al40   1.776       .  S
O37          C38   1.254       .  A
C38         C526   1.516       .  S
C39         C566   1.491       .  S
C42         C446   1.496       .  S
C43          O44   1.260       .  A
C43         C466   1.503   1_655  S
O45          C60   1.267       .  A
O45         Al53   1.933       .  S
C46          O56   1.265       .  A
C46          O47   1.253       .  A
C46         C586   1.500       .  S
O47         Al49   1.880       .  S
O48          C50   1.264       .  A
O48         Al49   1.934       .  S
Al49         O57   1.972       .  S
Al49         O59   1.873       .  S
Al49         O58   1.773       .  S
C50          O63   1.251       .  A
C50         C457   1.495       .  S
O51          C61   1.275       .  A
O51         Al53   1.960       .  S
O52          C65   1.259       .  A
O52         Al62   1.947       .  S
Al53         O66   1.874       .  S
Al53         O63   1.863       .  S
Al53         O58   1.776       .  S
O54          C61   1.260       .  A
O54         Al62   1.852       .  S
O55          C64   1.265       .  A
O55         Al62   1.887       .  S
O56         Al62   1.957       .  S
O57          C64   1.278       .  A
O58         Al62   1.787       .  S
O59          C60   1.257       .  A
C60         C606   1.504       .  S
C61         C426   1.474       .  S
C64         C397   1.488       .  S
C65          O66   1.251       .  A
C65         C486   1.510       .  S
O67          C82   1.249       .  A
O67         Al75   1.869       .  S
C68          O78   1.255       .  A
C68          O69   1.274       .  A
C68         C517   1.490       .  S
O69         Al71   1.974       .  S
O70          C72   1.250       .  A
O70         Al71   1.845       .  S
Al71         O79   1.880       .  S
Al71         O81   1.985       .  S
Al71         O80   1.769       .  S
C72          O85   1.273       .  A
C72         C417   1.476       .  S
O73          C83   1.256       .  A
O73         Al75   1.875       .  S
O74          C87   1.258       .  A
O74         Al84   1.885       .  S
Al75         O88   1.951       .  S
Al75         O85   1.983       .  S
Al75         O80   1.768       .  S
O76          C83   1.277       .  A
O76         Al84   1.978       .  S
O77          C86   1.279       .  A
O77         Al84   1.997       .  S
O78         Al84   1.868       .  S
O79          C86   1.258       .  A
O80         Al84   1.767       .  S
O81          C82   1.274       .  A
C82         C617   1.504       .  S
C83         C646   1.486       .  S
C86         C377   1.505       .  S
C87          O88   1.269       .  A
C87         C506   1.476       .  S
O89         C104   1.255       .  A
O89         Al97   1.863       .  S
C90         O100   1.253       .  A
C90          O91   1.273       .  A
C90         C277   1.510       .  S
O91         Al93   1.969       .  S
O92          C94   1.249       .  A
O92         Al93   1.839       .  S
Al93        O101   1.859       .  S
Al93        O103   1.979       .  S
Al93        O102   1.780       .  S
C94         O107   1.269       .  A
C94         C326   1.486       .  S
O95         C105   1.253       .  A
O95         Al97   1.854       .  S
O96         C109   1.259       .  A
O96        Al106   1.875       .  S
Al97        O110   1.953       .  S
Al97        O107   1.961       .  S
Al97        O102   1.779       .  S
O98         C105   1.272       .  A
O98        Al106   1.961       .  S
O99         C108   1.272       .  A
O99        Al106   1.960       .  S
O100       Al106   1.871       .  S
O101        C108   1.254       .  A
O102       Al106   1.782       .  S
O103        C104   1.274       .  A
C104        C366   1.507   1_655  S
C105        C337   1.485       .  S
C108        C546   1.490       .  S
C109        O110   1.266       .  A
C109        C297   1.509       .  S
O111        C126   1.278       .  A
O111       Al119   1.974       .  S
C112        O122   1.276       .  A
C112        O113   1.260       .  A
C112        C246   1.498       .  S
O113       Al115   1.880       .  S
O114        C116   1.269       .  A
O114       Al115   1.963       .  S
Al115       O123   1.962       .  S
Al115       O125   1.891       .  S
Al115       O124   1.776       .  S
C116        O129   1.255       .  A
C116        C217   1.489       .  S
O117        C127   1.271       .  A
O117       Al119   1.980       .  S
O118        C131   1.271       .  A
O118       Al128   1.960       .  S
Al119       O132   1.891       .  S
Al119       O129   1.882       .  S
Al119       O124   1.770       .  S
O120        C127   1.251       .  A
O120       Al128   1.850       .  S
O121        C130   1.257       .  A
O121       Al128   1.887       .  S
O122       Al128   1.974       .  S
O123        C130   1.270       .  A
O124       Al128   1.766       .  S
O125        C126   1.262       .  A
C126        C266   1.500       .  S
C127        C317   1.483       .  S
C130        C437   1.488       .  S
C131        O132   1.257       .  A
C131        C197   1.499   1_455  S
O133        C148   1.276       .  A
O133       Al141   1.984       .  S
C134        O144   1.273       .  A
C134        O135   1.252       .  A
C134        C306   1.509       .  S
O135       Al137   1.867       .  S
O136        C138   1.275       .  A
O136       Al137   1.975       .  S
Al137       O145   1.989       .  S
Al137       O147   1.877       .  S
Al137       O146   1.764       .  S
C138        O151   1.254       .  A
C138        C206   1.486       .  S
O139        C149   1.280       .  A
O139       Al141   1.998       .  S
O140        C153   1.275       .  A
O140       Al150   1.992       .  S
Al141       O154   1.878       .  S
Al141       O151   1.872       .  S
Al141       O146   1.764       .  S
O142        C149   1.251       .  A
O142       Al150   1.840       .  S
O143        C152   1.258       .  A
O143       Al150   1.864       .  S
O144       Al150   1.977       .  S
O145        C152   1.280       .  A
O146       Al150   1.776       .  S
O147        C148   1.255       .  A
C148        C286   1.490       .  S
C149        C177   1.484       .  S
C152        C406   1.499       .  S
C153        O154   1.252       .  A
C153        C226   1.519       .  S
O155        C170   1.259       .  A
O155       Al163   1.900       .  S
C156        O166   1.260       .  A
C156        O157   1.270       .  A
C156        C257   1.495       .  S
O157       Al159   1.961       .  S
O158        C160   1.251       .  A
O158       Al159   1.852       .  S
Al159       O167   1.886       .  S
Al159       O169   1.949       .  S
Al159       O168   1.759       .  S
C160        O173   1.276       .  A
C160        C186   1.498       .  S
O161        C171   1.261       .  A
O161       Al163   1.882       .  S
O162        C175   1.262       .  A
O162       Al172   1.898       .  S
Al163       O176   1.975       .  S
Al163       O173   2.008       .  S
Al163       O168   1.777       .  S
O164        C171   1.275       .  A
O164       Al172   1.976       .  S
O165        C174   1.278       .  A
O165       Al172   1.994       .  S
O166       Al172   1.892       .  S
O167        C174   1.257       .  A
O168       Al172   1.770       .  S
O169        C170   1.268       .  A
C170        C346   1.503       .  S
C171        C357   1.507       .  S
C174        C386   1.511       .  S
C175        O176   1.276       .  A
C175        C237   1.510       .  S
C177        C178   1.408       .  A
C177        C182   1.413       .  A
C178        C179   1.412       .  A
C178       Br190   1.911       .  S
C179        C180   1.410       .  A
C179       Br194   1.929       .  S
C180        C183   1.489       .  S
C180        C181   1.409       .  A
C181        C182   1.406       .  A
C181       Br189   1.932       .  S
C182       Br193   1.927       .  S
C183        C184   1.415       .  A
C183        C188   1.401       .  A
C184        C185   1.420       .  A
C184       Br195   1.926       .  S
C185        C186   1.412       .  A
C185       Br191   1.920       .  S
C186        C187   1.420       .  A
C187        C188   1.398       .  A
C187       Br196   1.925       .  S
C188       Br192   1.936       .  S
C197        C198   1.424       .  A
C197        C202   1.412       .  A
C198        C199   1.408       .  A
C198       Br210   1.930   1_655  S
C199        C200   1.405       .  A
C199       Br214   1.937       .  S
C200        C203   1.498       .  S
C200        C201   1.414       .  A
C201        C202   1.416       .  A
C201       Br209   1.927       .  S
C202       Br213   1.928       .  S
C203        C204   1.415       .  A
C203        C208   1.409       .  A
C204        C205   1.415       .  A
C204       Br215   1.928       .  S
C205        C206   1.409       .  A
C205       Br211   1.926       .  S
C206        C207   1.416       .  A
C207        C208   1.409       .  A
C207       Br216   1.929       .  S
C208       Br212   1.933       .  S
C217        C218   1.410       .  A
C217        C222   1.410       .  A
C218        C219   1.411       .  A
C218       Br230   1.926       .  S
C219        C220   1.412       .  A
C219       Br234   1.928       .  S
C220        C223   1.502       .  S
C220        C221   1.413       .  A
C221        C222   1.410       .  A
C221       Br229   1.919       .  S
C222       Br233   1.926       .  S
C223        C224   1.404       .  A
C223        C228   1.412       .  A
C224        C225   1.411       .  A
C224       Br235   1.936       .  S
C225        C226   1.433       .  A
C225       Br231   1.939       .  S
C226        C227   1.423       .  A
C227        C228   1.420       .  A
C227       Br236   1.932       .  S
C228       Br232   1.929       .  S
C237        C238   1.428       .  A
C237        C242   1.420       .  A
C238        C239   1.413       .  A
C238       Br250   1.934       .  S
C239        C240   1.405       .  A
C239       Br254   1.934       .  S
C240        C243   1.497       .  S
C240        C241   1.408       .  A
C241        C242   1.416       .  A
C241       Br249   1.931       .  S
C242       Br253   1.925       .  S
C243        C244   1.409       .  A
C243        C248   1.408       .  A
C244        C245   1.414       .  A
C244       Br255   1.929       .  S
C245        C246   1.417   1_545  A
C245       Br251   1.924   1_545  S
C246        C247   1.417       .  A
C247        C248   1.411   1_565  A
C247       Br256   1.931       .  S
C248       Br252   1.928       .  S
C257        C258   1.416       .  A
C257        C262   1.415       .  A
C258        C259   1.410       .  A
C258       Br270   1.920       .  S
C259        C260   1.408       .  A
C259       Br274   1.933       .  S
C260        C263   1.495       .  S
C260        C261   1.410       .  A
C261        C262   1.414       .  A
C261       Br269   1.927       .  S
C262       Br273   1.930       .  S
C263        C264   1.410       .  A
C263        C268   1.406       .  A
C264        C265   1.414       .  A
C264       Br275   1.929       .  S
C265        C266   1.416       .  A
C265       Br271   1.930       .  S
C266        C267   1.424       .  A
C267        C268   1.412       .  A
C267       Br276   1.934       .  S
C268       Br272   1.933       .  S
C277        C278   1.416       .  A
C277        C282   1.426       .  A
C278        C279   1.420       .  A
C278       Br290   1.928       .  S
C279        C280   1.415       .  A
C279       Br294   1.929   1_545  S
C280        C283   1.504   1_545  S
C280        C281   1.407       .  A
C281        C282   1.409       .  A
C281       Br289   1.937       .  S
C282       Br293   1.929       .  S
C283        C284   1.410       .  A
C283        C288   1.416       .  A
C284        C285   1.409       .  A
C284       Br295   1.930       .  S
C285        C286   1.415       .  A
C285       Br291   1.926       .  S
C286        C287   1.410       .  A
C287        C288   1.416       .  A
C287       Br296   1.926       .  S
C288       Br292   1.928       .  S
C297        C298   1.424       .  A
C297        C302   1.426       .  A
C298        C299   1.411       .  A
C298       Br310   1.938       .  S
C299        C300   1.406       .  A
C299       Br314   1.933       .  S
C300        C303   1.497       .  S
C300        C301   1.408       .  A
C301        C302   1.415       .  A
C301       Br309   1.931       .  S
C302       Br313   1.933       .  S
C303        C304   1.410       .  A
C303        C308   1.405       .  A
C304        C305   1.416       .  A
C304       Br315   1.930       .  S
C305        C306   1.421       .  A
C305       Br311   1.931       .  S
C306        C307   1.429       .  A
C307        C308   1.410       .  A
C307       Br316   1.939       .  S
C308       Br312   1.935       .  S
C317        C318   1.408       .  A
C317        C322   1.416   1_455  A
C318        C319   1.414       .  A
C318       Br330   1.919       .  S
C319        C320   1.412       .  A
C319       Br334   1.927   1_565  S
C320        C323   1.483   1_465  S
C320        C321   1.404   1_455  A
C321        C322   1.400       .  A
C321       Br329   1.935       .  S
C322       Br333   1.927       .  S
C323        C324   1.403       .  A
C323        C328   1.410       .  A
C324        C325   1.401       .  A
C324       Br335   1.932   1_545  S
C325        C326   1.419       .  A
C325       Br331   1.932       .  S
C326        C327   1.414       .  A
C327        C328   1.411       .  A
C327       Br336   1.929       .  S
C328       Br332   1.923   1_655  S
C337        C338   1.420       .  A
C337        C342   1.414       .  A
C338        C339   1.407       .  A
C338       Br350   1.936       .  S
C339        C340   1.406       .  A
C339       Br354   1.931       .  S
C340        C343   1.487       .  S
C340        C341   1.410       .  A
C341        C342   1.410       .  A
C341       Br349   1.931       .  S
C342       Br353   1.931       .  S
C343        C344   1.406       .  A
C343        C348   1.402       .  A
C344        C345   1.411       .  A
C344       Br355   1.929       .  S
C345        C346   1.420       .  A
C345       Br351   1.932       .  S
C346        C347   1.428       .  A
C347        C348   1.409       .  A
C347       Br356   1.930       .  S
C348       Br352   1.936       .  S
C357        C358   1.419       .  A
C357        C362   1.416       .  A
C358        C359   1.418       .  A
C358       Br370   1.927       .  S
C359        C360   1.414       .  A
C359       Br374   1.929       .  S
C360        C363   1.505       .  S
C360        C361   1.410       .  A
C361        C362   1.410       .  A
C361       Br369   1.931       .  S
C362       Br373   1.926       .  S
C363        C364   1.410       .  A
C363        C368   1.414       .  A
C364        C365   1.412       .  A
C364       Br375   1.932       .  S
C365        C366   1.422       .  A
C365       Br371   1.937       .  S
C366        C367   1.420       .  A
C367        C368   1.418       .  A
C367       Br376   1.931       .  S
C368       Br372   1.931       .  S
C377        C378   1.420       .  A
C377        C382   1.414       .  A
C378        C379   1.412       .  A
C378       Br390   1.931       .  S
C379        C380   1.408       .  A
C379       Br394   1.933       .  S
C380        C383   1.509       .  S
C380        C381   1.416       .  A
C381        C382   1.423       .  A
C381       Br389   1.926       .  S
C382       Br393   1.927       .  S
C383        C384   1.408       .  A
C383        C388   1.414       .  A
C384        C385   1.414       .  A
C384       Br395   1.933       .  S
C385        C386   1.424       .  A
C385       Br391   1.933       .  S
C386        C387   1.417       .  A
C387        C388   1.422       .  A
C387       Br396   1.927       .  S
C388       Br392   1.927       .  S
C397        C398   1.412       .  A
C397        C402   1.412       .  A
C398        C399   1.414       .  A
C398       Br410   1.930       .  S
C399        C400   1.412       .  A
C399       Br414   1.929       .  S
C400        C403   1.500       .  S
C400        C401   1.411       .  A
C401        C402   1.413       .  A
C401       Br409   1.928       .  S
C402       Br413   1.930       .  S
C403        C404   1.412       .  A
C403        C408   1.408       .  A
C404        C405   1.415       .  A
C404       Br415   1.929       .  S
C405        C406   1.415       .  A
C405       Br411   1.929       .  S
C406        C407   1.421       .  A
C407        C408   1.413       .  A
C407       Br416   1.934       .  S
C408       Br412   1.930       .  S
C417        C418   1.409       .  A
C417        C422   1.413       .  A
C418        C419   1.414   1_554  A
C418       Br430   1.926   1_554  S
C419        C420   1.413   1_556  A
C419       Br434   1.927       .  S
C420        C423   1.481   1_554  S
C420        C421   1.403       .  A
C421        C422   1.397       .  A
C421       Br429   1.937       .  S
C422       Br433   1.923       .  S
C423        C424   1.412       .  A
C423        C428   1.409       .  A
C424        C425   1.410       .  A
C424       Br435   1.928   1_556  S
C425        C426   1.406       .  A
C425       Br431   1.917       .  S
C426        C427   1.406       .  A
C427        C428   1.399       .  A
C427       Br436   1.927       .  S
C428       Br432   1.931       .  S
C437        C438   1.412       .  A
C437        C442   1.413       .  A
C438        C439   1.412       .  A
C438       Br450   1.929       .  S
C439        C440   1.412       .  A
C439       Br454   1.930       .  S
C440        C443   1.498   1_455  S
C440        C441   1.411       .  A
C441        C442   1.413       .  A
C441       Br449   1.928   1_455  S
C442       Br453   1.930       .  S
C443        C444   1.411       .  A
C443        C448   1.408   1_655  A
C444        C445   1.415       .  A
C444       Br455   1.929       .  S
C445        C446   1.416       .  A
C445       Br451   1.929       .  S
C446        C447   1.419       .  A
C447        C448   1.411   1_655  A
C447       Br456   1.935   1_655  S
C448       Br452   1.930       .  S
C457        C458   1.423       .  A
C457        C462   1.417       .  A
C458        C459   1.410   1_556  A
C458       Br470   1.935       .  S
C459        C460   1.407   1_554  A
C459       Br474   1.933       .  S
C460        C463   1.495   1_556  S
C460        C461   1.411       .  A
C461        C462   1.410       .  A
C461       Br469   1.924       .  S
C462       Br473   1.935       .  S
C463        C464   1.408       .  A
C463        C468   1.409       .  A
C464        C465   1.411       .  A
C464       Br475   1.932       .  S
C465        C466   1.421       .  A
C465       Br471   1.934       .  S
C466        C467   1.424       .  A
C467        C468   1.412       .  A
C467       Br476   1.935       .  S
C468       Br472   1.934       .  S
C477        C478   1.417       .  A
C477        C482   1.425       .  A
C478        C479   1.411       .  A
C478       Br490   1.935       .  S
C479        C480   1.411       .  A
C479       Br494   1.923       .  S
C480        C483   1.493   1_554  S
C480        C481   1.405   1_554  A
C481        C482   1.407   1_556  A
C481       Br489   1.934       .  S
C482       Br493   1.938       .  S
C483        C484   1.407       .  A
C483        C488   1.404       .  A
C484        C485   1.414       .  A
C484       Br495   1.934       .  S
C485        C486   1.429       .  A
C485       Br491   1.936       .  S
C486        C487   1.427       .  A
C487        C488   1.411       .  A
C487       Br496   1.938       .  S
C488       Br492   1.934       .  S
C497        C498   1.422       .  A
C497        C502   1.415       .  A
C498        C499   1.407   1_565  A
C498       Br510   1.929       .  S
C499        C500   1.405       .  A
C499       Br514   1.937       .  S
C500        C503   1.490       .  S
C500        C501   1.411       .  A
C501        C502   1.413   1_545  A
C501       Br509   1.930       .  S
C502       Br513   1.929       .  S
C503        C504   1.409       .  A
C503        C508   1.413       .  A
C504        C505   1.406       .  A
C504       Br515   1.932       .  S
C505        C506   1.411       .  A
C505       Br511   1.926       .  S
C506        C507   1.407       .  A
C507        C508   1.410       .  A
C507       Br516   1.929       .  S
C508       Br512   1.928       .  S
C517        C518   1.416       .  A
C517        C522   1.414       .  A
C518        C519   1.410       .  A
C518       Br530   1.932       .  S
C519        C520   1.409       .  A
C519       Br534   1.929       .  S
C520        C523   1.496       .  S
C520        C521   1.411       .  A
C521        C522   1.413       .  A
C521       Br529   1.931       .  S
C522       Br533   1.925       .  S
C523        C524   1.403       .  A
C523        C528   1.408       .  A
C524        C525   1.412       .  A
C524       Br535   1.937       .  S
C525        C526   1.435       .  A
C525       Br531   1.938       .  S
C526        C527   1.424       .  A
C527        C528   1.416       .  A
C527       Br536   1.932       .  S
C528       Br532   1.932       .  S
C537        C538   1.413       .  A
C537        C542   1.411       .  A
C538        C539   1.410       .  A
C538       Br550   1.932       .  S
C539        C540   1.411       .  A
C539       Br554   1.930       .  S
C540        C543   1.490       .  S
C540        C541   1.408       .  A
C541        C542   1.408       .  A
C541       Br549   1.928   1_455  S
C542       Br553   1.929       .  S
C543        C544   1.406       .  A
C543        C548   1.410   1_455  A
C544        C545   1.410   1_455  A
C544       Br555   1.931       .  S
C545        C546   1.420       .  A
C545       Br551   1.935   1_655  S
C546        C547   1.414       .  A
C547        C548   1.411       .  A
C547       Br556   1.929       .  S
C548       Br552   1.931       .  S
C557        C558   1.411       .  A
C557        C562   1.419       .  A
C558        C559   1.417       .  A
C558       Br570   1.923   1_556  S
C559        C560   1.413       .  A
C559       Br574   1.927   1_556  S
C560        C563   1.486   1_446  S
C560        C561   1.401   1_455  A
C561        C562   1.400   1_655  A
C561       Br569   1.935       .  S
C562       Br573   1.929   1_455  S
C563        C564   1.411   1_654  A
C563        C568   1.406       .  A
C564        C565   1.413   1_456  A
C564       Br575   1.928       .  S
C565        C566   1.413       .  A
C565       Br571   1.922   1_554  S
C566        C567   1.416       .  A
C567        C568   1.403       .  A
C567       Br576   1.926       .  S
C568       Br572   1.934   1_565  S
C577        C578   1.431       .  A
C577        C582   1.425       .  A
C578        C579   1.409       .  A
C578       Br590   1.938       .  S
C579        C580   1.403       .  A
C579       Br594   1.936       .  S
C580        C583   1.494       .  S
C580        C581   1.408       .  A
C581        C582   1.415       .  A
C581       Br589   1.930       .  S
C582       Br593   1.934       .  S
C583        C584   1.410       .  A
C583        C588   1.407       .  A
C584        C585   1.415       .  A
C584       Br595   1.930       .  S
C585        C586   1.420       .  A
C585       Br591   1.931       .  S
C586        C587   1.419       .  A
C587        C588   1.408       .  A
C587       Br596   1.934       .  S
C588       Br592   1.932       .  S
C597        C598   1.417       .  A
C597        C602   1.418       .  A
C598        C599   1.411   1_545  A
C598       Br610   1.928       .  S
C599        C600   1.410       .  A
C599       Br614   1.933       .  S
C600        C603   1.490       .  S
C600        C601   1.407   1_565  A
C601        C602   1.407       .  A
C601       Br609   1.932       .  S
C602       Br613   1.934       .  S
C603        C604   1.407       .  A
C603        C608   1.404       .  A
C604        C605   1.412       .  A
C604       Br615   1.934       .  S
C605        C606   1.425       .  A
C605       Br611   1.935       .  S
C606        C607   1.428       .  A
C607        C608   1.408       .  A
C607       Br616   1.937       .  S
C608       Br612   1.935       .  S
C617        C618   1.428       .  A
C617        C622   1.415       .  A
C618        C619   1.405       .  A
C618       Br630   1.938       .  S
C619        C620   1.402       .  A
C619       Br634   1.936   1_554  S
C620        C623   1.487   1_554  S
C620        C621   1.410       .  A
C621        C622   1.414       .  A
C621       Br629   1.928       .  S
C622       Br633   1.928       .  S
C623        C624   1.411       .  A
C623        C628   1.410       .  A
C624        C625   1.409       .  A
C624       Br635   1.932       .  S
C625        C626   1.413       .  A
C625       Br631   1.929       .  S
C626        C627   1.408       .  A
C627        C628   1.406       .  A
C627       Br636   1.929       .  S
C628       Br632   1.928   1_556  S
C637        C638   1.423       .  A
C637        C642   1.412       .  A
C638        C639   1.407       .  A
C638       Br650   1.929   1_655  S
C639        C640   1.405       .  A
C639       Br654   1.938   1_556  S
C640        C643   1.497       .  S
C640        C641   1.414       .  A
C641        C642   1.417       .  A
C641       Br649   1.927       .  S
C642       Br653   1.927       .  S
C643        C644   1.408       .  A
C643        C648   1.415   1_556  A
C644        C645   1.407   1_556  A
C644       Br655   1.934       .  S
C645        C646   1.417       .  A
C645       Br651   1.930       .  S
C646        C647   1.408       .  A
C647        C648   1.415       .  A
C647       Br656   1.928       .  S
C648       Br652   1.927   1_554  S
