geometry optimzed in LAMMPS
_audit_creation_date              2020-12-01 
_audit_creation_method            'lammps2cif' 
_symmetry_space_group_name_H-M    'P1' 
_symmetry_Int_Tables_number       1 
_symmetry_cell_setting            triclinic 
loop_ 
_symmetry_equiv_pos_as_xyz 
  x,y,z 
_cell_length_a                    29.92962854 
_cell_length_b                    43.97815496024702 
_cell_length_c                    28.739799002790438 
_cell_angle_alpha                 89.99965939032879 
_cell_angle_beta                  89.9992778767432 
_cell_angle_gamma                 89.99980796379684 
loop_ 
_atom_site_label 
_atom_site_type_symbol 
_atom_site_fract_x 
_atom_site_fract_y 
_atom_site_fract_z 
_atom_site_charge 
O1          O  0.39082453  0.42680515  0.59421566    -0.78900
O2          O  0.35487372  0.56024022  0.62494885    -0.63600
O3          O  0.33522673  0.47753688  0.59492231    -1.10200
C4          C  0.38395818  0.50184245  0.44671104     1.08000
O5          O  0.33047241  0.57871588  0.55736384    -0.76800
O6          O  0.29020134  0.53325386  0.50760933    -0.64400
Ni7        Ni  0.35121642  0.44636443  0.63764210     1.34900
C8          C  0.28074908  0.50609051  0.49637464     0.86700
O9          O  0.31686139  0.51455095  0.67081549    -0.77300
O10         O  0.31233681  0.46391408  0.68327149    -0.87600
C11         C  0.34159861  0.58198474  0.59974326     0.86300
O12         O  0.40127025  0.46484304  0.66796319    -0.65800
O13         O  0.36517738  0.52713828  0.45542465    -0.85100
C14         C  0.41891576  0.49098663  0.66565292     0.87100
C15         C  0.30412840  0.49146820  0.69414698     1.08700
H16         H  0.40431928  0.52506075  0.55453917     0.40500
O17         O  0.37271258  0.52115347  0.55130893    -1.07700
O18         O  0.30700024  0.48370365  0.50413002    -0.64400
Ni19       Ni  0.36440346  0.47907635  0.53615754     1.26300
O20         O  0.40331119  0.51230545  0.64049942    -0.64600
O21         O  0.39337655  0.48214646  0.47745467    -0.76900
C22         C  0.37911050  0.41821280  0.55383021     0.86500
O23         O  0.35910965  0.43616743  0.52622877    -0.64100
Ni24       Ni  0.34854998  0.55057947  0.50920154     1.27400
Ni25       Ni  0.34550893  0.51855869  0.61154064     1.26100
H26         H  0.30352334  0.47535532  0.58962913     0.41100
O27         O  0.39081794  0.82165159  0.66224824    -0.78900
O28         O  0.35480641  0.68822536  0.63149486    -0.63600
O29         O  0.33519475  0.77092924  0.66154009    -1.10200
C30         C  0.38389269  0.74660676  0.80974798     1.08000
O31         O  0.33041458  0.66974128  0.69908029    -0.76800
O32         O  0.29012153  0.71522268  0.74879346    -0.64400
Ni33       Ni  0.35118780  0.80210426  0.61882874     1.34900
C34         C  0.28068243  0.74238817  0.76003174     0.86700
O35         O  0.31680620  0.73392653  0.58564468    -0.77300
O36         O  0.31228864  0.78456639  0.57320851    -0.87600
C37         C  0.34154685  0.66647651  0.65670095     0.86300
O38         O  0.40122060  0.78361671  0.58848588    -0.65800
O39         O  0.36507227  0.72132423  0.80103527    -0.85100
C40         C  0.41885813  0.75747061  0.59078804     0.87100
C41         C  0.30407252  0.75701440  0.56232623     1.08700
H42         H  0.40426232  0.72338140  0.70191388     0.40500
O43         O  0.37265922  0.72729938  0.70514375    -1.07700
O44         O  0.30696156  0.76476493  0.75231438    -0.64400
Ni45       Ni  0.36437296  0.76937759  0.72030018     1.26300
O46         O  0.40325762  0.73615346  0.61594847    -0.64600
O47         O  0.39334236  0.76629365  0.77900146    -0.76900
C48         C  0.37912416  0.83023881  0.70264367     0.86500
O49         O  0.35910747  0.81228732  0.73023809    -0.64100
Ni50       Ni  0.34846463  0.69788251  0.74724850     1.27400
Ni51       Ni  0.34545603  0.72990682  0.64491362     1.26100
H52         H  0.30349257  0.77311610  0.66683546     0.41100
O53         O  0.39731907  0.42681144  0.16206876    -0.78900
O54         O  0.43318749  0.56027497  0.13143123    -0.63600
O55         O  0.45287296  0.47756858  0.16140975    -1.10200
C56         C  0.40405081  0.50184736  0.30961455     1.08000
O57         O  0.45766357  0.57870636  0.19901324    -0.76800
O58         O  0.49784431  0.53326050  0.24884686    -0.64400
Ni59       Ni  0.43693180  0.44639775  0.11867122     1.34900
C60         C  0.50729923  0.50608691  0.26001841     0.86700
O61         O  0.47123100  0.51460583  0.08553483    -0.77300
O62         O  0.47581809  0.46397282  0.07306892    -0.87600
C63         C  0.44650798  0.58200108  0.15664847     0.86300
O64         O  0.38687879  0.46486649  0.08834052    -0.65800
O65         O  0.42279829  0.52715685  0.30091685    -0.85100
C66         C  0.36920428  0.49100015  0.09066564     0.87100
C67         C  0.48400108  0.49153249  0.06220374     1.08700
H68         H  0.38375598  0.52506979  0.20180054     0.40500
O69         O  0.41535906  0.52116690  0.20503523    -1.07700
O70         O  0.48106098  0.48370493  0.25220640    -0.64400
Ni71       Ni  0.42367531  0.47908931  0.22016565     1.26300
O72         O  0.38477890  0.51232123  0.11583584    -0.64600
O73         O  0.39469015  0.48214138  0.27886601    -0.76900
C74         C  0.40900621  0.41822796  0.20246809     0.86500
O75         O  0.42898556  0.43618508  0.23007775    -0.64100
Ni76       Ni  0.43950086  0.55058946  0.24716091     1.27400
Ni77       Ni  0.44257177  0.51859092  0.14480797     1.26100
H78         H  0.48457634  0.47539747  0.16671406     0.41100
O79         O  0.39742222  0.82169182  0.09435314    -0.78900
O80         O  0.43336503  0.68826037  0.12503662    -0.63600
O81         O  0.45301523  0.77095879  0.09499235    -1.10200
C82         C  0.40412522  0.74663565  0.94683435     1.08000
O83         O  0.45777505  0.66979929  0.05744676    -0.76800
O84         O  0.49796531  0.71524987  0.00761596    -0.64400
Ni85       Ni  0.43708601  0.80213462  0.13772605     1.34900
C86         C  0.50741452  0.74241995  0.99641713     0.86700
O87         O  0.47143311  0.73394573  0.17087216    -0.77300
O88         O  0.47602146  0.78458313  0.18330062    -0.87600
C89         C  0.44662726  0.66651930  0.09981675     0.86300
O90         O  0.38707057  0.78366067  0.16811984    -0.65800
O91         O  0.42291616  0.72134141  0.95553302    -0.85100
C92         C  0.36940030  0.75752525  0.16581072     0.87100
C93         C  0.48421413  0.75702694  0.19417771     1.08700
H94         H  0.38389000  0.72343494  0.05467482     0.40500
O95         O  0.41549084  0.72734351  0.05141733    -1.07700
O96         O  0.48116145  0.76480134  0.00419181    -0.64400
Ni97       Ni  0.42378272  0.76941882  0.03625779     1.26300
O98         O  0.38496159  0.73620675  0.14062750    -0.64600
O99         O  0.39476250  0.76634433  0.97757873    -0.76900
C100        C  0.40907594  0.83027762  0.05394480     0.86500
O101        O  0.42905768  0.81232609  0.02632453    -0.64100
Ni102      Ni  0.43962407  0.69791650  0.00929500     1.27400
Ni103      Ni  0.44273908  0.72993961  0.11162339     1.26100
H104        H  0.48471478  0.77313482  0.08966657     0.41100
O105        O  0.08045663  0.41980998  0.30737266    -0.78900
O106        O  0.10907306  0.56236466  0.27624261    -0.63600
O107        O  0.12267596  0.47737613  0.30131414    -1.10200
C108        C  0.05407977  0.50706226  0.44414826     1.08000
O109        O  0.14079417  0.57171709  0.34423000    -0.76800
O110        O  0.15121850  0.53368270  0.41798852    -0.64400
Ni111      Ni  0.09850129  0.44795384  0.25920931     1.34900
C112        C  0.16887187  0.50754181  0.41567045     0.86700
O113        O  0.14332497  0.51638392  0.22745258    -0.77300
O114        O  0.11509953  0.47139998  0.20542630    -0.87600
C115        C  0.12908280  0.58031419  0.30384578     0.86300
O116        O  0.04015067  0.46527782  0.25766206    -0.65800
O117        O  0.06228217  0.53461655  0.43326852    -0.85100
C118        C  0.03069365  0.49244011  0.24642508     0.87100
C119        C  0.13389116  0.49669138  0.19670824     1.08700
H120        H  0.05348749  0.52317064  0.33964199     0.40500
O121        O  0.08519139  0.52099081  0.34493218    -1.07700
O122        O  0.15327984  0.48622673  0.39050216    -0.64400
Ni123      Ni  0.09547670  0.47996992  0.36155004     1.26300
O124        O  0.05695222  0.51482670  0.25415327    -0.64600
O125        O  0.06682983  0.48397855  0.42082766    -0.76900
C126        C  0.09159530  0.41654065  0.34974796     0.86500
O127        O  0.10485067  0.43828826  0.37495897    -0.64100
Ni128      Ni  0.10117507  0.55216344  0.38765040     1.27400
Ni129      Ni  0.11436297  0.51945373  0.28616459     1.26100
H130        H  0.15428150  0.47346801  0.30453933     0.41100
O131        O  0.08046718  0.32875859  0.44902122    -0.78900
O132        O  0.10908531  0.18621579  0.48017277    -0.63600
O133        O  0.12270567  0.27119878  0.45508963    -1.10200
C134        C  0.05411608  0.24151635  0.31226018     1.08000
O135        O  0.14079480  0.17684200  0.41218466    -0.76800
O136        O  0.15122612  0.21487550  0.33842238    -0.64400
Ni137      Ni  0.09854134  0.30062771  0.49719126     1.34900
C138        C  0.16889448  0.24101163  0.34073527     0.86700
O139        O  0.14334658  0.23219177  0.52894957    -0.77300
O140        O  0.11516771  0.27719084  0.55097417    -0.87600
C141        C  0.12910296  0.16826130  0.45258439     0.86300
O142        O  0.04018906  0.28330640  0.49878922    -0.65800
O143        O  0.06229375  0.21396033  0.32315021    -0.85100
C144        C  0.03072631  0.25614100  0.51000425     0.87100
C145        C  0.13394081  0.25189246  0.55969043     1.08700
H146        H  0.05350723  0.22541473  0.41676853     0.40500
O147        O  0.08521205  0.22758711  0.41147706    -1.07700
O148        O  0.15331700  0.26233352  0.36590234    -0.64400
Ni149      Ni  0.09551406  0.26860577  0.39485332     1.26300
O150        O  0.05697631  0.23375371  0.50225364    -0.64600
O151        O  0.06687687  0.26459891  0.33557493    -0.76900
C152        C  0.09162084  0.33203164  0.40665018     0.86500
O153        O  0.10490015  0.31028709  0.38144512    -0.64100
Ni154      Ni  0.10117911  0.19640614  0.36876727     1.27400
Ni155      Ni  0.11438374  0.22912351  0.47024188     1.26100
H156        H  0.15431185  0.27510243  0.45186464     0.41100
O157        O  0.20758032  0.41978457  0.94902925    -0.78900
O158        O  0.17901131  0.56232700  0.98008904    -0.63600
O159        O  0.16535224  0.47735003  0.95502114    -1.10200
C160        C  0.23409772  0.50698762  0.81224303     1.08000
O161        O  0.14737312  0.57170851  0.91206737    -0.76800
O162        O  0.13696070  0.53366556  0.83832156    -0.64400
Ni163      Ni  0.18944451  0.44791846  0.99716531     1.34900
C164        C  0.11928077  0.50753274  0.84062366     0.86700
O165        O  0.14466937  0.51637747  0.02885272    -0.77300
O166        O  0.17275718  0.47136123  0.05091784    -0.87600
C167        C  0.15903708  0.58028612  0.95247685     0.86300
O168        O  0.24780607  0.46522105  0.99885866    -0.65800
O169        O  0.22590929  0.53454678  0.82310564    -0.85100
C170        C  0.25728592  0.49239133  0.01002965     0.87100
C171        C  0.15401436  0.49667309  0.05960840     1.08700
H172        H  0.23461362  0.52311083  0.91674920     0.40500
O173        O  0.20291255  0.52094421  0.91142783    -1.07700
O174        O  0.13484031  0.48620510  0.86579231    -0.64400
Ni175      Ni  0.19261030  0.47992543  0.89481262     1.26300
O176        O  0.23106179  0.51478388  0.00222663    -0.64600
O177        O  0.22131580  0.48391277  0.83556417    -0.76900
C178        C  0.19648299  0.41650619  0.90664446     0.86500
O179        O  0.18322416  0.43824440  0.88141578    -0.64100
Ni180      Ni  0.18700372  0.55212199  0.86868842     1.27400
Ni181      Ni  0.17368598  0.51942409  0.97016697     1.26100
H182        H  0.13374663  0.47345707  0.95176043     0.41100
O183        O  0.20772417  0.32872082  0.80740502    -0.78900
O184        O  0.17901891  0.18618964  0.77627254    -0.63600
O185        O  0.16545686  0.27117188  0.80137421    -1.10200
C186        C  0.23415772  0.24147237  0.94414668     1.08000
O187        O  0.14736893  0.17682479  0.84429257    -0.76800
O188        O  0.13700067  0.21485157  0.91805649    -0.64400
Ni189      Ni  0.18960167  0.30059550  0.75925189     1.34900
C190        C  0.11934172  0.24099072  0.91575109     0.86700
O191        O  0.14472688  0.23217499  0.72753098    -0.77300
O192        O  0.17292142  0.27716480  0.70548455    -0.87600
C193        C  0.15904221  0.16823575  0.80389286     0.86300
O194        O  0.24794355  0.28326059  0.75760871    -0.65800
O195        O  0.22594896  0.21391893  0.93326832    -0.85100
C196        C  0.25738501  0.25609314  0.74638720     0.87100
C197        C  0.15411879  0.25187505  0.69678353     1.08700
H198        H  0.23466916  0.22537006  0.83962782     0.40500
O199        O  0.20297005  0.22755059  0.84495003    -1.07700
O200        O  0.13492028  0.26231066  0.89058213    -0.64400
Ni201      Ni  0.19270266  0.26857040  0.86158397     1.26300
O202        O  0.23112500  0.23371322  0.75414754    -0.64600
O203        O  0.22139354  0.26455740  0.92083751    -0.76900
C204        C  0.19658975  0.33199498  0.84978041     0.86500
O205        O  0.18333966  0.31025043  0.87500093    -0.64100
Ni206      Ni  0.18702293  0.19637490  0.88767920     1.27400
Ni207      Ni  0.17374359  0.22909627  0.78621150     1.26100
H208        H  0.13385627  0.27508362  0.80462903     0.41100
O209        O  0.39084305  0.32165575  0.16215426    -0.78900
O210        O  0.35502094  0.18822942  0.13147483    -0.63600
O211        O  0.33526802  0.27092198  0.16147052    -1.10200
C212        C  0.38401966  0.24661917  0.30969106     1.08000
O213        O  0.33044472  0.16979285  0.19901520    -0.76800
O214        O  0.29024289  0.21522825  0.24886595    -0.64400
Ni215      Ni  0.35121873  0.30209790  0.11874841     1.34900
C216        C  0.28078755  0.24239910  0.26005411     0.86700
O217        O  0.31699215  0.23390093  0.08555490    -0.77300
O218        O  0.31232553  0.28453720  0.07314610    -0.87600
C219        C  0.34166881  0.16650031  0.15666811     0.86300
O220        O  0.40126186  0.28363438  0.08839194    -0.65800
O221        O  0.36527000  0.22131278  0.30097319    -0.85100
C222        C  0.41897045  0.25751313  0.09074811     0.87100
C223        C  0.30419019  0.25697708  0.06224646     1.08700
H224        H  0.40436676  0.22342005  0.20189956     0.40500
O225        O  0.37275974  0.22732345  0.20510735    -1.07700
O226        O  0.30703213  0.26478178  0.25226028    -0.64400
Ni227      Ni  0.36443595  0.26939804  0.22024309     1.26300
O228        O  0.40342067  0.23619688  0.11594554    -0.64600
O229        O  0.39339002  0.26633498  0.27895827    -0.76900
C230        C  0.37913091  0.33025525  0.20253623     0.86500
O231        O  0.35913625  0.31230627  0.23015031    -0.64100
Ni232      Ni  0.34858527  0.19789371  0.24719683     1.27400
Ni233      Ni  0.34560197  0.22990748  0.14485677     1.26100
H234        H  0.30356100  0.27308448  0.16675864     0.41100
O235        O  0.39073909  0.92681678  0.09434362    -0.78900
O236        O  0.35490160  0.06025436  0.12501010    -0.63600
O237        O  0.33516594  0.97756045  0.09501068    -1.10200
C238        C  0.38399064  0.00184239  0.94681615     1.08000
O239        O  0.33044814  0.07871105  0.05743415    -0.76800
O240        O  0.29020658  0.03327339  0.00761707    -0.64400
Ni241      Ni  0.35110804  0.94638496  0.13773792     1.34900
C242        C  0.28073146  0.00610441  0.99643517     0.86700
O243        O  0.31684205  0.01458669  0.17089694    -0.77300
O244        O  0.31221074  0.96395072  0.18333114    -0.87600
C245        C  0.34161963  0.08199320  0.09979739     0.86300
O246        O  0.40114357  0.96484994  0.16810581    -0.65800
O247        O  0.36523451  0.02714889  0.95551440    -0.85100
C248        C  0.41883031  0.99097931  0.16577854     0.87100
C249        C  0.30405957  0.99151112  0.19421593     1.08700
H250        H  0.40430140  0.02505108  0.05462406     0.40500
O251        O  0.37269378  0.02115475  0.05139205    -1.07700
O252        O  0.30696555  0.98371400  0.00422108    -0.64400
Ni253      Ni  0.36435894  0.97908074  0.03625566     1.26300
O254        O  0.40328201  0.01229513  0.14058145    -0.64600
O255        O  0.39334650  0.98213335  0.97756066    -0.76900
C256        C  0.37905137  0.91822575  0.05394901     0.86500
O257        O  0.35904643  0.93617437  0.02634338    -0.64100
Ni258      Ni  0.34856295  0.05058581  0.00927665     1.27400
Ni259      Ni  0.34548890  0.01857701  0.11162050     1.26100
H260        H  0.30346123  0.97539516  0.08971044     0.41100
O261        O  0.39735583  0.32166614  0.59427123    -0.78900
O262        O  0.43329619  0.18822327  0.62501703    -0.63600
O263        O  0.45294789  0.27092573  0.59496589    -1.10200
C264        C  0.40414631  0.24660159  0.44678654     1.08000
O265        O  0.45772004  0.16975536  0.55743577    -0.76800
O266        O  0.49794219  0.21520870  0.50762159    -0.64400
Ni267      Ni  0.43698284  0.30210641  0.63768041     1.34900
C268        C  0.50738536  0.24237488  0.49639384     0.86700
O269        O  0.47132219  0.23391953  0.67087050    -0.77300
O270        O  0.47587848  0.28455876  0.68329431    -0.87600
C271        C  0.44657797  0.16648036  0.59980983     0.86300
O272        O  0.38694141  0.28363316  0.66802874    -0.65800
O273        O  0.42292665  0.22130475  0.45549611    -0.85100
C274        C  0.36928321  0.25749363  0.66572277     0.87100
C275        C  0.48407248  0.25700530  0.69418505     1.08700
H276        H  0.38384515  0.22339720  0.55461923     0.40500
O277        O  0.41544752  0.22730525  0.55137865    -1.07700
O278        O  0.48113442  0.26475803  0.50416608    -0.64400
Ni279      Ni  0.42374658  0.26938074  0.53621599     1.26300
O280        O  0.38487089  0.23617014  0.64056748    -0.64600
O281        O  0.39475106  0.26630381  0.47752822    -0.76900
C282        C  0.40904077  0.33024622  0.55386987     0.86500
O283        O  0.42903400  0.31228706  0.52627087    -0.64100
Ni284      Ni  0.43959887  0.19787609  0.50927041     1.27400
Ni285      Ni  0.44266550  0.22990558  0.61160069     1.26100
H286        H  0.48464938  0.27310345  0.58965769     0.41100
O287        O  0.39740858  0.92678546  0.66226743    -0.78900
O288        O  0.43337935  0.06022260  0.63151079    -0.63600
O289        O  0.45301048  0.97751960  0.66157033    -1.10200
C290        C  0.40420834  0.00184384  0.80974085     1.08000
O291        O  0.45773918  0.07870854  0.69910435    -0.76800
O292        O  0.49800251  0.03324666  0.74886550    -0.64400
Ni293      Ni  0.43703314  0.94634222  0.61885384     1.34900
C294        C  0.50745234  0.00608402  0.76010673     0.86700
O295        O  0.47141313  0.01452551  0.58568309    -0.77300
O296        O  0.47592896  0.96388679  0.57323723    -0.87600
C297        C  0.44662149  0.08197357  0.65672237     0.86300
O298        O  0.38698964  0.96482016  0.58851263    -0.65800
O299        O  0.42301083  0.02713348  0.80103623    -0.85100
C300        C  0.36934916  0.99096595  0.59080928     0.87100
C301        C  0.48414814  0.99143940  0.56236274     1.08700
H302        H  0.38390352  0.02505233  0.70190409     0.40500
O303        O  0.41550560  0.02114386  0.70515100    -1.07700
O304        O  0.48119660  0.98369803  0.75236486    -0.64400
Ni305      Ni  0.42380593  0.97906758  0.72031628     1.26300
O306        O  0.38495242  0.01228760  0.61595576    -0.64600
O307        O  0.39480147  0.98214706  0.77899671    -0.76900
C308        C  0.40910177  0.91819998  0.70266284     0.86500
O309        O  0.42909342  0.93615891  0.73026474    -0.64100
Ni310      Ni  0.43965434  0.05057214  0.74726238     1.27400
Ni311      Ni  0.44274013  0.01854152  0.64493790     1.26100
H312        H  0.48471123  0.97533612  0.66687900     0.41100
O313        O  0.58041819  0.91976520  0.30747469    -0.78900
O314        O  0.60904903  0.06229482  0.27635078    -0.63600
O315        O  0.62268806  0.97731236  0.30139061    -1.10200
C316        C  0.55412847  0.00696080  0.44424798     1.08000
O317        O  0.64076913  0.07165352  0.34433683    -0.76800
O318        O  0.65119669  0.03361970  0.41809382    -0.64400
Ni319      Ni  0.59851476  0.94788463  0.25929819     1.34900
C320        C  0.66889538  0.00749503  0.41574310     0.86700
O321        O  0.64330727  0.01632954  0.22755064    -0.77300
O322        O  0.61516040  0.97131930  0.20552276    -0.87600
C323        C  0.62907110  0.08024248  0.30394401     0.86300
O324        O  0.54016534  0.96520956  0.25767780    -0.65800
O325        O  0.56226662  0.03452162  0.43335403    -0.85100
C326        C  0.53070341  0.99237783  0.24647987     0.87100
C327        C  0.63391751  0.99662424  0.19681207     1.08700
H328        H  0.55348472  0.02307318  0.33974718     0.40500
O329        O  0.58519215  0.02090962  0.34503058    -1.07700
O330        O  0.65334218  0.98617983  0.39054873    -0.64400
Ni331      Ni  0.59552732  0.97989344  0.36163802     1.26300
O332        O  0.55694801  0.01476358  0.25425299    -0.64600
O333        O  0.56692046  0.98388530  0.42093506    -0.76900
C334        C  0.59162516  0.91648010  0.34982800     0.86500
O335        O  0.60494857  0.93821571  0.37502354    -0.64100
Ni336      Ni  0.60115118  0.05208636  0.38774713     1.27400
Ni337      Ni  0.61435479  0.01938746  0.28626083     1.26100
H338        H  0.65429596  0.97341105  0.30459706     0.41100
O339        O  0.58037302  0.82868025  0.44905792    -0.78900
O340        O  0.60911805  0.68616526  0.48020274    -0.63600
O341        O  0.62270964  0.77115492  0.45517053    -1.10200
C342        C  0.55420194  0.74149442  0.31228977     1.08000
O343        O  0.64085153  0.67683054  0.41221705    -0.76800
O344        O  0.65126313  0.71485897  0.33845332    -0.64400
Ni345      Ni  0.59850532  0.80057958  0.49724623     1.34900
C346        C  0.66895788  0.74098433  0.34081787     0.86700
O347        O  0.64334072  0.73214689  0.52901828    -0.77300
O348        O  0.61518228  0.77716090  0.55102489    -0.87600
C349        C  0.62912318  0.66822067  0.45258889     0.86300
O350        O  0.54017198  0.78323036  0.49888458    -0.65800
O351        O  0.56233428  0.71393424  0.32319284    -0.85100
C352        C  0.53073079  0.75605983  0.51008729     0.87100
C353        C  0.63394943  0.75186074  0.55974632     1.08700
H354        H  0.55353978  0.72538232  0.41680071     0.40500
O355        O  0.58524727  0.72755068  0.41152178    -1.07700
O356        O  0.65340180  0.76229091  0.36602743    -0.64400
Ni357      Ni  0.59557339  0.76856780  0.39491403     1.26300
O358        O  0.55698876  0.73368209  0.50230767    -0.64600
O359        O  0.56699045  0.76457093  0.33560305    -0.76900
C360        C  0.59162318  0.83197534  0.40671855     0.86500
O361        O  0.60498773  0.81024643  0.38153323    -0.64100
Ni362      Ni  0.60122636  0.69638024  0.36880208     1.27400
Ni363      Ni  0.61440067  0.72907740  0.47030013     1.26100
H364        H  0.65431736  0.77506570  0.45197497     0.41100
O365        O  0.70774092  0.91980262  0.94912177    -0.78900
O366        O  0.67903133  0.06233386  0.98027156    -0.63600
O367        O  0.66545961  0.97735085  0.95516029    -1.10200
C368        C  0.73412054  0.00704791  0.81237309     1.08000
O369        O  0.64737418  0.07170219  0.91225949    -0.76800
O370        O  0.63697800  0.03367174  0.83850358    -0.64400
Ni371      Ni  0.68959146  0.94792032  0.99727748     1.34900
C372        C  0.61933006  0.00752877  0.84080300     0.86700
O373        O  0.64472156  0.01634676  0.02899340    -0.77300
O374        O  0.67288572  0.97134649  0.05103893    -0.87600
C375        C  0.65906275  0.08029297  0.95265259     0.86300
O376        O  0.74793367  0.96525290  0.99896143    -0.65800
O377        O  0.72591715  0.03460155  0.82325387    -0.85100
C378        C  0.75737619  0.99241997  0.01018375     0.87100
C379        C  0.65409396  0.99664082  0.05973611     1.08700
H380        H  0.73467420  0.02315417  0.91690723     0.40500
O381        O  0.70297513  0.02097259  0.91158700    -1.07700
O382        O  0.63491975  0.98620861  0.86596225    -0.64400
Ni383      Ni  0.69270326  0.97995195  0.89495304     1.26300
O384        O  0.73112595  0.01480301  0.00240195    -0.64600
O385        O  0.72138098  0.98396381  0.83569669    -0.76900
C386        C  0.69661086  0.91652995  0.90674485     0.86500
O387        O  0.68334015  0.93827297  0.88153449    -0.64100
Ni388      Ni  0.68701227  0.05214783  0.86886033     1.27400
Ni389      Ni  0.67374910  0.01942621  0.97032495     1.26100
H390        H  0.63385856  0.97344206  0.95190515     0.41100
O391        O  0.70767178  0.82877070  0.80742676    -0.78900
O392        O  0.67903247  0.68623357  0.77629218    -0.63600
O393        O  0.66542693  0.77121040  0.80141044    -1.10200
C394        C  0.73411787  0.74151915  0.94418091     1.08000
O395        O  0.64738045  0.67684238  0.84430155    -0.76800
O396        O  0.63696409  0.71488025  0.91805060    -0.64400
Ni397      Ni  0.68954323  0.80064128  0.75928015     1.34900
C398        C  0.61931823  0.74102441  0.91576565     0.86700
O399        O  0.64470266  0.73220729  0.72757965    -0.77300
O400        O  0.67286185  0.77720419  0.70552035    -0.87600
C401        C  0.65905351  0.66826940  0.80389303     0.86300
O402        O  0.74789407  0.78332209  0.75760816    -0.65800
O403        O  0.72590297  0.71396551  0.93330956    -0.85100
C404        C  0.75734599  0.75615590  0.74638856     0.87100
C405        C  0.65408421  0.75190459  0.69682843     1.08700
H406        H  0.73465832  0.72541223  0.83965572     0.40500
O407        O  0.70295931  0.72759171  0.84497855    -1.07700
O408        O  0.63491148  0.76235235  0.89062315    -0.64400
Ni409      Ni  0.69268601  0.76861250  0.86161174     1.26300
O410        O  0.73110430  0.73376919  0.75417088    -0.64600
O411        O  0.72137983  0.76460303  0.92085699    -0.76900
C412        C  0.69657804  0.83203745  0.84981531     0.86500
O413        O  0.68332640  0.81029217  0.87503277    -0.64100
Ni414      Ni  0.68700749  0.69641139  0.88770143     1.27400
Ni415      Ni  0.67373102  0.72913618  0.78624588     1.26100
H416        H  0.63382574  0.77511406  0.80467334     0.41100
O417        O  0.89080160  0.82171367  0.16219494    -0.78900
O418        O  0.85486888  0.68825112  0.13147992    -0.63600
O419        O  0.83522783  0.77095727  0.16151629    -1.10200
C420        C  0.88406718  0.74665512  0.30968090     1.08000
O421        O  0.83050701  0.66977806  0.19908283    -0.76800
O422        O  0.79026905  0.71523646  0.24887215    -0.64400
Ni423      Ni  0.85118782  0.80213523  0.11879102     1.34900
C424        C  0.78082148  0.74240196  0.26009968     0.86700
O425        O  0.81682908  0.73393873  0.08563647    -0.77300
O426        O  0.81230747  0.78457507  0.07317432    -0.87600
C427        C  0.84161514  0.66650648  0.15669896     0.86300
O428        O  0.90124296  0.78366460  0.08846608    -0.65800
O429        O  0.86528368  0.72135725  0.30098930    -0.85100
C430        C  0.91888951  0.75752100  0.09076188     0.87100
C431        C  0.80409746  0.75702062  0.06230443     1.08700
H432        H  0.90434942  0.72343508  0.20184754     0.40500
O433        O  0.87274933  0.72734040  0.20510045    -1.07700
O434        O  0.80706710  0.76478742  0.25232312    -0.64400
Ni435      Ni  0.86444505  0.76941668  0.22025542     1.26300
O436        O  0.90328785  0.73619328  0.11589899    -0.64600
O437        O  0.89346311  0.76634784  0.27892742    -0.76900
C438        C  0.87913033  0.83028484  0.20260491     0.86500
O439        O  0.85914578  0.81232111  0.23020255    -0.64100
Ni440      Ni  0.84861859  0.69791416  0.24722892     1.27400
Ni441      Ni  0.84550523  0.72993379  0.14489169     1.26100
H442        H  0.80352751  0.77313701  0.16683247     0.41100
O443        O  0.89079183  0.42682288  0.09425038    -0.78900
O444        O  0.85480928  0.56025123  0.12499848    -0.63600
O445        O  0.83519180  0.47755272  0.09491978    -1.10200
C446        C  0.88403056  0.50187973  0.94675714     1.08000
O447        O  0.83049266  0.57874421  0.05739127    -0.76800
O448        O  0.79023256  0.53328437  0.00761720    -0.64400
Ni449      Ni  0.85114025  0.44637358  0.13764350     1.34900
C450        C  0.78078120  0.50612176  0.99637472     0.86700
O451        O  0.81674664  0.51455398  0.17080464    -0.77300
O452        O  0.81221291  0.46391481  0.18323693    -0.87600
C453        C  0.84158455  0.58200432  0.09978134     0.86300
O454        O  0.90116353  0.46484912  0.16802379    -0.65800
O455        O  0.86523322  0.52717012  0.95546581    -0.85100
C456        C  0.91881080  0.49099298  0.16573482     0.87100
C457        C  0.80398936  0.49146699  0.19411229     1.08700
H458        H  0.90431740  0.52508481  0.05462073     0.40500
O459        O  0.87271514  0.52117706  0.05135836    -1.07700
O460        O  0.80703546  0.48373476  0.00411936    -0.64400
Ni461      Ni  0.86441908  0.47910205  0.03618294     1.26300
O462        O  0.90322691  0.51231461  0.14057441    -0.64600
O463        O  0.89343784  0.48218263  0.97750319    -0.76900
C464        C  0.87911451  0.41823517  0.05385083     0.86500
O465        O  0.85913745  0.43619344  0.02623510    -0.64100
Ni466      Ni  0.84858351  0.55060716  0.00923800     1.27400
Ni467      Ni  0.84545330  0.51857218  0.11156204     1.26100
H468        H  0.80349296  0.47537100  0.08959640     0.41100
O469        O  0.89732686  0.42687745  0.66211542    -0.78900
O470        O  0.93317553  0.56031320  0.63142632    -0.63600
O471        O  0.95289613  0.47761895  0.66143682    -1.10200
C472        C  0.90413351  0.50189948  0.80965446     1.08000
O473        O  0.95761912  0.57877247  0.69900606    -0.76800
O474        O  0.99788321  0.53333100  0.74880225    -0.64400
Ni475      Ni  0.93695982  0.44644001  0.61871657     1.34900
C476        C  0.00735790  0.50616140  0.75998418     0.86700
O477        O  0.97123301  0.51463858  0.58554346    -0.77300
O478        O  0.97586533  0.46400128  0.57312367    -0.87600
C479        C  0.94646295  0.58205165  0.65663755     0.86300
O480        O  0.88692577  0.46490252  0.58834466    -0.65800
O481        O  0.92288245  0.52720661  0.80094335    -0.85100
C482        C  0.86923333  0.49103007  0.59066975     0.87100
C483        C  0.98402944  0.49156003  0.56223728     1.08700
H484        H  0.88377029  0.52511503  0.70182895     0.40500
O485        O  0.91537957  0.52121630  0.70505705    -1.07700
O486        O  0.98111680  0.48377331  0.75221219    -0.64400
Ni487      Ni  0.92371386  0.47914213  0.72019878     1.26300
O488        O  0.88478193  0.51235036  0.61585974    -0.64600
O489        O  0.89474750  0.48219675  0.77890953    -0.76900
C490        C  0.90902361  0.41828546  0.70250711     0.86500
O491        O  0.92902600  0.43623576  0.73011210    -0.64100
Ni492      Ni  0.93952540  0.55064483  0.74716964     1.27400
Ni493      Ni  0.94257855  0.51863426  0.64482095     1.26100
H494        H  0.98460135  0.47545407  0.66673326     0.41100
O495        O  0.89734154  0.82172559  0.59427940    -0.78900
O496        O  0.93320052  0.68829757  0.62497375    -0.63600
O497        O  0.95293113  0.77099452  0.59497800    -1.10200
C498        C  0.90419306  0.74669559  0.44676217     1.08000
O499        O  0.95772789  0.66985002  0.55742117    -0.76800
O500        O  0.99796189  0.71529483  0.50761473    -0.64400
Ni501      Ni  0.93695625  0.80216794  0.63769684     1.34900
C502        C  0.00741848  0.74246298  0.49641250     0.86700
O503        O  0.97121573  0.73397409  0.67088813    -0.77300
O504        O  0.97583672  0.78461084  0.68331366    -0.87600
C505        C  0.94651634  0.66656236  0.59977219     0.86300
O506        O  0.88690874  0.78369611  0.66803516    -0.65800
O507        O  0.92295663  0.72139384  0.45547557    -0.85100
C508        C  0.86922465  0.75756663  0.66569019     0.87100
C509        C  0.98398615  0.75705202  0.69420960     1.08700
H510        H  0.88383665  0.72348798  0.55455298     0.40500
O511        O  0.91544494  0.72739220  0.55134221    -1.07700
O512        O  0.98117159  0.76484754  0.50418979    -0.64400
Ni513      Ni  0.92376591  0.76946768  0.53620656     1.26300
O514        O  0.88479293  0.73625289  0.64050271    -0.64600
O515        O  0.89480735  0.76640476  0.47749748    -0.76900
C516        C  0.90905996  0.83032429  0.55389882     0.86500
O517        O  0.92906601  0.81237571  0.52629359    -0.64100
Ni518      Ni  0.93961695  0.69796487  0.50924833     1.27400
Ni519      Ni  0.94260938  0.72997695  0.61158844     1.26100
H520        H  0.98463748  0.77316376  0.58969281     0.41100
O521        O  0.70765105  0.41975442  0.44900554    -0.78900
O522        O  0.67898590  0.56228421  0.48010801    -0.63600
O523        O  0.66537370  0.47730003  0.45506269    -1.10200
C524        C  0.73394175  0.50696448  0.31220544     1.08000
O525        O  0.64726461  0.57164318  0.41212406    -0.76800
O526        O  0.63683994  0.53360207  0.33837334    -0.64400
Ni527      Ni  0.68954430  0.44787828  0.49717137     1.34900
C528        C  0.61917105  0.50746741  0.34070410     0.86700
O529        O  0.64473198  0.51631776  0.52890745    -0.77300
O530        O  0.67289146  0.47131434  0.55094351    -0.87600
C531        C  0.65897709  0.58023564  0.45251057     0.86300
O532        O  0.74789107  0.46520957  0.49880102    -0.65800
O533        O  0.72576760  0.53452199  0.32309137    -0.85100
C534        C  0.75734473  0.49238187  0.50998664     0.87100
C535        C  0.65413334  0.49661886  0.55965252     1.08700
H536        H  0.73456021  0.52307980  0.41671294     0.40500
O537        O  0.70285477  0.52090593  0.41142585    -1.07700
O538        O  0.63474531  0.48615145  0.36588379    -0.64400
Ni539      Ni  0.69255378  0.47988553  0.39481944     1.26300
O540        O  0.73109325  0.51476229  0.50220388    -0.64600
O541        O  0.72117847  0.48388479  0.33552810    -0.76900
C542        C  0.69647985  0.41646908  0.40664196     0.86500
O543        O  0.68316872  0.43820294  0.38143436    -0.64100
Ni544      Ni  0.68688181  0.55207967  0.36870717     1.27400
Ni545      Ni  0.67368726  0.51937742  0.47019498     1.26100
H546        H  0.63376738  0.47339346  0.45184523     0.41100
O547        O  0.70776817  0.32867223  0.30741362    -0.78900
O548        O  0.67908885  0.18614020  0.27629433    -0.63600
O549        O  0.66548122  0.27112853  0.30132725    -1.10200
C550        C  0.73402686  0.24147986  0.44419418     1.08000
O551        O  0.64737178  0.17679261  0.34428790    -0.76800
O552        O  0.63694195  0.21483129  0.41803675    -0.64400
Ni553      Ni  0.68967277  0.30055226  0.25923895     1.34900
C554        C  0.61925716  0.24096056  0.41568585     0.86700
O555        O  0.64485433  0.23211553  0.22747909    -0.77300
O556        O  0.67302956  0.27712048  0.20546286    -0.87600
C557        C  0.65907523  0.16819519  0.30390109     0.86300
O558        O  0.74801454  0.28321558  0.25763846    -0.65800
O559        O  0.72587370  0.21391922  0.43331035    -0.85100
C560        C  0.75746657  0.25604828  0.24642727     0.87100
C561        C  0.65425822  0.25182212  0.19674424     1.08700
H562        H  0.73466634  0.22535628  0.33968933     0.40500
O563        O  0.70295958  0.22752610  0.34497222    -1.07700
O564        O  0.63482293  0.26227108  0.39048991    -0.64400
Ni565      Ni  0.69263975  0.26854527  0.36157518     1.26300
O566        O  0.73121201  0.23366558  0.25418980    -0.64600
O567        O  0.72124812  0.26455378  0.42087050    -0.76900
C568        C  0.69655048  0.33195978  0.34976310     0.86500
O569        O  0.68322887  0.31022412  0.37495952    -0.64100
Ni570      Ni  0.68698850  0.19635650  0.38769932     1.27400
Ni571      Ni  0.67379997  0.22905110  0.28619738     1.26100
H572        H  0.63387364  0.27503602  0.30453263     0.41100
O573        O  0.58047097  0.41981222  0.80739795    -0.78900
O574        O  0.60915050  0.56234672  0.77622725    -0.63600
O575        O  0.62273709  0.47736528  0.80134296    -1.10200
C576        C  0.55406510  0.50706071  0.94412806     1.08000
O577        O  0.64081168  0.57172282  0.84423771    -0.76800
O578        O  0.65122742  0.53369430  0.91799591    -0.64400
Ni579      Ni  0.59859086  0.44793379  0.75923536     1.34900
C580        C  0.66888143  0.50755298  0.91569705     0.86700
O581        O  0.64344397  0.51635941  0.72748888    -0.77300
O582        O  0.61526259  0.47136117  0.70546269    -0.87600
C583        C  0.62912507  0.58030714  0.80383956     0.86300
O584        O  0.54024576  0.46526387  0.75758808    -0.65800
O585        O  0.56228043  0.53461450  0.93325501    -0.85100
C586        C  0.53080006  0.49242777  0.74635020     0.87100
C587        C  0.63404908  0.49665486  0.69675013     1.08700
H588        H  0.55352477  0.52316577  0.83960600     0.40500
O589        O  0.58522533  0.52098660  0.84492026    -1.07700
O590        O  0.65328919  0.48622928  0.89054549    -0.64400
Ni591      Ni  0.59550288  0.47996715  0.86155667     1.26300
O592        O  0.55705143  0.51481277  0.75411414    -0.64600
O593        O  0.56681907  0.48397757  0.92081105    -0.76900
C594        C  0.59160378  0.41654330  0.84977466     0.86500
O595        O  0.60487222  0.43828905  0.87498026    -0.64100
Ni596      Ni  0.60118333  0.55216395  0.88764433     1.27400
Ni597      Ni  0.61443753  0.51943975  0.78617349     1.26100
H598        H  0.65434106  0.47345715  0.80459148     0.41100
O599        O  0.58058310  0.32878096  0.94909739    -0.78900
O600        O  0.60919743  0.18623020  0.98018054    -0.63600
O601        O  0.62279711  0.27120958  0.95507346    -1.10200
C602        C  0.55407665  0.24152636  0.81230794     1.08000
O603        O  0.64083923  0.17684003  0.91216641    -0.76800
O604        O  0.65125512  0.21489110  0.83843294    -0.64400
Ni605      Ni  0.59869149  0.30063217  0.99722651     1.34900
C606        C  0.66888543  0.24104034  0.84070906     0.86700
O607        O  0.64353853  0.23219669  0.02889426    -0.77300
O608        O  0.61535801  0.27718015  0.05097785    -0.87600
C609        C  0.62916820  0.16826537  0.95257497     0.86300
O610        O  0.54033528  0.28331739  0.99888030    -0.65800
O611        O  0.56231515  0.21397375  0.82316672    -0.85100
C612        C  0.53088139  0.25614869  0.01008868     0.87100
C613        C  0.63414445  0.25188206  0.05965831     1.08700
H614        H  0.55356325  0.22540724  0.91683235     0.40500
O615        O  0.58526076  0.22759207  0.91150383    -1.07700
O616        O  0.65328031  0.26236847  0.86584278    -0.64400
Ni617      Ni  0.59551507  0.26861682  0.89487888     1.26300
O618        O  0.55712810  0.23376412  0.00230955    -0.64600
O619        O  0.56679964  0.26461037  0.83564137    -0.76900
C620        C  0.59164060  0.33204668  0.90669806     0.86500
O621        O  0.60485720  0.31029988  0.88146329    -0.64100
Ni622      Ni  0.60121207  0.19641628  0.86877225     1.27400
Ni623      Ni  0.61449952  0.22913301  0.97023124     1.26100
H624        H  0.65439766  0.27511474  0.95179964     0.41100
O625        O  0.08037481  0.91980170  0.80745901    -0.78900
O626        O  0.10908026  0.06232728  0.77634063    -0.63600
O627        O  0.12266085  0.97734530  0.80141334    -1.10200
C628        C  0.05403107  0.00702483  0.94422126     1.08000
O629        O  0.14076141  0.07169528  0.84434324    -0.76800
O630        O  0.15115857  0.03365598  0.91810091    -0.64400
Ni631      Ni  0.09849164  0.94792652  0.75929957     1.34900
C632        C  0.16882176  0.00751836  0.91578355     0.86700
O633        O  0.14335465  0.01635157  0.72757824    -0.77300
O634        O  0.11516084  0.97136122  0.70553015    -0.87600
C635        C  0.12907959  0.08027955  0.80394285     0.86300
O636        O  0.04015155  0.96526508  0.75767677    -0.65800
O637        O  0.06221999  0.03458120  0.93334290    -0.85100
C638        C  0.03071069  0.99243470  0.74646808     0.87100
C639        C  0.13395677  0.99665421  0.69683072     1.08700
H640        H  0.05346346  0.02313798  0.83971434     0.40500
O641        O  0.08516541  0.02096025  0.84501945    -1.07700
O642        O  0.15324457  0.98620147  0.89060735    -0.64400
Ni643      Ni  0.09544932  0.97993949  0.86163746     1.26300
O644        O  0.05697286  0.01481178  0.75423081    -0.64600
O645        O  0.06679358  0.98394393  0.92090461    -0.76900
C646        C  0.09153117  0.91652075  0.84982717     0.86500
O647        O  0.10482104  0.93825840  0.87503792    -0.64100
Ni648      Ni  0.10112612  0.05213425  0.88774349     1.27400
Ni649      Ni  0.11436442  0.01942225  0.78626906     1.26100
H650        H  0.15426288  0.97343340  0.80464745     0.41100
O651        O  0.08044697  0.82873487  0.94908929    -0.78900
O652        O  0.10911034  0.68619811  0.98017402    -0.63600
O653        O  0.12271378  0.77118079  0.95509361    -1.10200
C654        C  0.05395614  0.74152476  0.81233571     1.08000
O655        O  0.14072553  0.67683094  0.91213650    -0.76800
O656        O  0.15109797  0.71486742  0.83838598    -0.64400
Ni657      Ni  0.09860865  0.80061059  0.99722986     1.34900
C658        C  0.16877578  0.74100060  0.84069396     0.86700
O659        O  0.14344249  0.73216723  0.02892088    -0.77300
O660        O  0.11532618  0.77717789  0.05098164    -0.87600
C661        C  0.12906783  0.66824236  0.95254136     0.86300
O662        O  0.04026077  0.78328906  0.99893389    -0.65800
O663        O  0.06214496  0.71396685  0.82320306    -0.85100
C664        C  0.03080135  0.75611898  0.01012324     0.87100
C665        C  0.13410006  0.75187633  0.05967147     1.08700
H666        H  0.05346253  0.72540491  0.91685100     0.40500
O667        O  0.08516137  0.72757645  0.91151826    -1.07700
O668        O  0.15321714  0.76232291  0.86587214    -0.64400
Ni669      Ni  0.09544801  0.76859583  0.89489397     1.26300
O670        O  0.05703956  0.73373254  0.00232939    -0.64600
O671        O  0.06673800  0.76460144  0.83565113    -0.76900
C672        C  0.09156244  0.83201422  0.90670938     0.86500
O673        O  0.10482683  0.81027527  0.88148677    -0.64100
Ni674      Ni  0.10107140  0.69640231  0.86877253     1.27400
Ni675      Ni  0.11440737  0.72910519  0.97024739     1.26100
H676        H  0.15431585  0.77508251  0.95182714     0.41100
O677        O  0.20774529  0.91980477  0.44912204    -0.78900
O678        O  0.17911471  0.06235465  0.48025557    -0.63600
O679        O  0.16550399  0.97736827  0.45517251    -1.10200
C680        C  0.23413732  0.00704239  0.31236354     1.08000
O681        O  0.14743315  0.07171780  0.41225168    -0.76800
O682        O  0.13701841  0.03368178  0.33849785    -0.64400
Ni683      Ni  0.18964036  0.94793522  0.49728202     1.34900
C684        C  0.11935536  0.00754379  0.34081112     0.86700
O685        O  0.14482080  0.01637542  0.52901327    -0.77300
O686        O  0.17297711  0.97137115  0.55105079    -0.87600
C687        C  0.15912055  0.08030836  0.45264612     0.86300
O688        O  0.24799082  0.96525526  0.49891812    -0.65800
O689        O  0.22595542  0.03459883  0.32324459    -0.85100
C690        C  0.25745264  0.99241950  0.51013823     0.87100
C691        C  0.15419625  0.99666860  0.55975476     1.08700
H692        H  0.23472280  0.02315354  0.41688128     0.40500
O693        O  0.20302050  0.02097881  0.41157546    -1.07700
O694        O  0.13493324  0.98622587  0.36598306    -0.64400
Ni695      Ni  0.19272442  0.97995902  0.39495268     1.26300
O696        O  0.23121042  0.01480993  0.50237390    -0.64600
O697        O  0.22138253  0.98396213  0.33568647    -0.76900
C698        C  0.19660695  0.91653373  0.40674655     0.86500
O699        O  0.18333921  0.93827993  0.38154038    -0.64100
Ni700      Ni  0.18706018  0.05215411  0.36885004     1.27400
Ni701      Ni  0.17381968  0.01944413  0.47032613     1.26100
H702        H  0.13389909  0.97346623  0.45193204     0.41100
O703        O  0.20777137  0.82876181  0.30743834    -0.78900
O704        O  0.17910410  0.68621963  0.27630243    -0.63600
O705        O  0.16551864  0.77120729  0.30136153    -1.10200
C706        C  0.23407666  0.74152083  0.44420831     1.08000
O707        O  0.14737576  0.67686338  0.34428714    -0.76800
O708        O  0.13696468  0.71490118  0.41805205    -0.64400
Ni709      Ni  0.18971529  0.80062624  0.25926415     1.34900
C710        C  0.11930253  0.74103882  0.41572413     0.86700
O711        O  0.14487794  0.73220092  0.22750403    -0.77300
O712        O  0.17310641  0.77718533  0.20547714    -0.87600
C713        C  0.15907491  0.66827312  0.30389434     0.86300
O714        O  0.24806014  0.78329033  0.25770942    -0.65800
O715        O  0.22589564  0.71396504  0.43331943    -0.85100
C716        C  0.25750905  0.75612380  0.24648750     0.87100
C717        C  0.15431247  0.75189393  0.19676032     1.08700
H718        H  0.23469032  0.72541372  0.33970680     0.40500
O719        O  0.20298499  0.72759151  0.34499132    -1.07700
O720        O  0.13488220  0.76235109  0.39054021    -0.64400
Ni721      Ni  0.19269394  0.76861177  0.36160567     1.26300
O722        O  0.23124165  0.73374370  0.25422142    -0.64600
O723        O  0.22131718  0.76460354  0.42089226    -0.76900
C724        C  0.19660733  0.83203575  0.34980714     0.86500
O725        O  0.18331604  0.81029292  0.37500766    -0.64100
Ni726      Ni  0.18700043  0.69641758  0.38770537     1.27400
Ni727      Ni  0.17382505  0.72912936  0.28622028     1.26100
H728        H  0.13391323  0.77511931  0.30457533     0.41100
O729        O  0.89077064  0.32172888  0.66212665    -0.78900
O730        O  0.85486899  0.18828991  0.63145771    -0.63600
O731        O  0.83519746  0.27098832  0.66147905    -1.10200
C732        C  0.88406103  0.24668122  0.80965687     1.08000
O733        O  0.83043750  0.16983532  0.69904223    -0.76800
O734        O  0.79024938  0.21527730  0.74888150    -0.64400
Ni735      Ni  0.85112956  0.30216181  0.61874206     1.34900
C736        C  0.78078737  0.24244824  0.76006203     0.86700
O737        O  0.81680656  0.23396529  0.58560603    -0.77300
O738        O  0.81221399  0.28460016  0.57315723    -0.87600
C739        C  0.84157763  0.16655388  0.65667038     0.86300
O740        O  0.90116081  0.28369162  0.58836980    -0.65800
O741        O  0.86529873  0.22137770  0.80095454    -0.85100
C742        C  0.91883347  0.25755687  0.59068429     0.87100
C743        C  0.80402776  0.25704162  0.56228863     1.08700
H744        H  0.90432695  0.22347914  0.70182464     0.40500
O745        O  0.87272301  0.22738203  0.70507416    -1.07700
O746        O  0.80702821  0.26483381  0.75227373    -0.64400
Ni747      Ni  0.86441238  0.26945784  0.72022375     1.26300
O748        O  0.90327012  0.23623849  0.61586684    -0.64600
O749        O  0.89341344  0.26639387  0.77891454    -0.76900
C750        C  0.87909131  0.33031941  0.70252458     0.86500
O751        O  0.85911537  0.31236520  0.73014560    -0.64100
Ni752      Ni  0.84859417  0.19795125  0.74719401     1.27400
Ni753      Ni  0.84548828  0.22996909  0.64486084     1.26100
H754        H  0.80349599  0.27316106  0.66679464     0.41100
O755        O  0.89079085  0.92687101  0.59435297    -0.78900
O756        O  0.85484964  0.06031204  0.62502356    -0.63600
O757        O  0.83519617  0.97760889  0.59500850    -1.10200
C758        C  0.88406496  0.00191493  0.44684396     1.08000
O759        O  0.83040054  0.07875854  0.55743874    -0.76800
O760        O  0.79022812  0.03330552  0.50759778    -0.64400
Ni761      Ni  0.85114312  0.94643433  0.63773817     1.34900
C762        C  0.78078789  0.00613263  0.49640756     0.86700
O763        O  0.81681709  0.01462663  0.67089677    -0.77300
O764        O  0.81223055  0.96398923  0.68332917    -0.87600
C765        C  0.84155481  0.08204555  0.59980610     0.86300
O766        O  0.90116759  0.96491245  0.66810374    -0.65800
O767        O  0.86528303  0.02721430  0.45553192    -0.85100
C768        C  0.91883488  0.99104831  0.66578581     0.87100
C769        C  0.80405403  0.99154583  0.69421549     1.08700
H770        H  0.90430702  0.02513156  0.55465873     0.40500
O771        O  0.87270701  0.02122179  0.55141305    -1.07700
O772        O  0.80704033  0.98375509  0.50420425    -0.64400
Ni773      Ni  0.86441746  0.97914509  0.53626932     1.26300
O774        O  0.90326727  0.01236607  0.64060572    -0.64600
O775        O  0.89343318  0.98221314  0.47759415    -0.76900
C776        C  0.87912342  0.91828704  0.55394872     0.86500
O777        O  0.85913597  0.93624024  0.52633875    -0.64100
Ni778      Ni  0.84856618  0.05064363  0.50928756     1.27400
Ni779      Ni  0.84547858  0.01862996  0.61162855     1.26100
H780        H  0.80349575  0.97543236  0.58969136     0.41100
O781        O  0.89736650  0.32167321  0.09426142    -0.78900
O782        O  0.93336393  0.18824238  0.12497895    -0.63600
O783        O  0.95297855  0.27094603  0.09494392    -1.10200
C784        C  0.90423603  0.24664840  0.94674617     1.08000
O785        O  0.95770839  0.16975741  0.05737592    -0.76800
O786        O  0.99800468  0.21523826  0.00766707    -0.64400
Ni787      Ni  0.93700151  0.30211775  0.13766728     1.34900
C788        C  0.00745012  0.24240291  0.99642977     0.86700
O789        O  0.97138687  0.23393388  0.17082149    -0.77300
O790        O  0.97590739  0.28457185  0.18327325    -0.87600
C791        C  0.94660697  0.16649393  0.09976400     0.86300
O792        O  0.88697243  0.28363129  0.16802002    -0.65800
O793        O  0.92304628  0.22136104  0.95544871    -0.85100
C794        C  0.86933457  0.25748515  0.16572079     0.87100
C795        C  0.98412448  0.25701823  0.19414475     1.08700
H796        H  0.88388353  0.22341203  0.05458634     0.40500
O797        O  0.91548762  0.22732526  0.05134412    -1.07700
O798        O  0.98118239  0.26478398  0.00416006    -0.64400
Ni799      Ni  0.92378245  0.26940396  0.03619357     1.26300
O800        O  0.88492715  0.23616970  0.14055298    -0.64600
O801        O  0.89479504  0.26633161  0.97750054    -0.76900
C802        C  0.90905998  0.33026512  0.05386819     0.86500
O803        O  0.92906214  0.31231327  0.02626349    -0.64100
Ni804      Ni  0.93965603  0.19790877  0.00922303     1.27400
Ni805      Ni  0.94271556  0.22992315  0.11156347     1.26100
H806        H  0.98467943  0.27313112  0.08963902     0.41100
O807        O  0.89739016  0.92683068  0.16227623    -0.78900
O808        O  0.93330118  0.06026422  0.13154034    -0.63600
O809        O  0.95298451  0.97756512  0.16156655    -1.10200
C810        C  0.90426591  0.00188613  0.30977016     1.08000
O811        O  0.95778497  0.07873279  0.19909512    -0.76800
O812        O  0.99804168  0.03327037  0.24885758    -0.64400
Ni813      Ni  0.93699636  0.94639113  0.11885035     1.34900
C814        C  0.00748354  0.00610705  0.26010043     0.86700
O815        O  0.97130818  0.01458045  0.08566378    -0.77300
O816        O  0.97587089  0.96394404  0.07322133    -0.87600
C817        C  0.94660912  0.08200633  0.15673059     0.86300
O818        O  0.88693911  0.96486567  0.08853012    -0.65800
O819        O  0.92306430  0.02717583  0.30105376    -0.85100
C820        C  0.86927681  0.99100327  0.09085649     0.87100
C821        C  0.98405530  0.99150004  0.06233832     1.08700
H822        H  0.88390352  0.02509420  0.20196956     0.40500
O823        O  0.91550884  0.02118287  0.20518488    -1.07700
O824        O  0.98122143  0.98372511  0.25235637    -0.64400
Ni825      Ni  0.92381487  0.97910607  0.22033391     1.26300
O826        O  0.88487262  0.01232155  0.11601660    -0.64600
O827        O  0.89484822  0.98218452  0.27903520    -0.76900
C828        C  0.90909737  0.91824158  0.20266524     0.86500
O829        O  0.92909984  0.93619624  0.23026509    -0.64100
Ni830      Ni  0.93970049  0.05060827  0.24727202     1.27400
Ni831      Ni  0.94268561  0.01858547  0.14494675     1.26100
H832        H  0.98468912  0.97538792  0.16685500     0.41100
C833        C  0.94931089  0.13679546  0.11989684    -0.11300
C834        C  0.94931101  0.11170422  0.13659589    -0.12800
C835        C  0.89595987  0.99539813  0.35752326    -0.11300
C836        C  0.89239914  0.99540994  0.39910164    -0.12800
C837        C  0.89239412  0.25317124  0.85740897    -0.11300
C838        C  0.89594694  0.25315776  0.89899115    -0.12800
C839        C  0.83885552  0.13685231  0.63656147    -0.11300
C840        C  0.83884681  0.11175076  0.61990493    -0.12800
C841        C  0.04802887  0.00139499  0.28661412    -0.11300
C842        C  0.08025400  0.00210219  0.31226124    -0.12800
C843        C  0.19930381  0.88683244  0.38661995    -0.11300
C844        C  0.19930314  0.86173722  0.36993338    -0.12800
C845        C  0.14245816  0.74538415  0.10741930    -0.11300
C846        C  0.14602529  0.74539370  0.14900079    -0.12800
C847        C  0.02923565  0.00159828  0.98567651    -0.11300
C848        C  0.00883251  0.99692696  0.02087133    -0.12800
C849        C  0.95793376  0.99648215  0.69433548    -0.11300
C850        C  0.99016205  0.99716636  0.71997565    -0.12800
C851        C  0.14586096  0.00315926  0.60750389    -0.11300
C852        C  0.14228420  0.00315292  0.64908226    -0.12800
C853        C  0.08883235  0.88681703  0.86993607    -0.11300
C854        C  0.08884271  0.86171706  0.88660058    -0.12800
C855        C  0.74022778  0.24717297  0.78654023    -0.11300
C856        C  0.70798845  0.24647936  0.81216582    -0.12800
C857        C  0.58890502  0.38684373  0.86990026    -0.11300
C858        C  0.58891732  0.36174749  0.88657954    -0.12800
C859        C  0.75880649  0.24692090  0.48565722    -0.11300
C860        C  0.77921736  0.25160557  0.52084402    -0.12800
C861        C  0.79801840  0.25132974  0.21992830    -0.11300
C862        C  0.83024289  0.25203395  0.19428033    -0.12800
C863        C  0.64597290  0.24533270  0.14898588    -0.11300
C864        C  0.64244363  0.24535712  0.10740326    -0.12800
C865        C  0.64234938  0.50314610  0.64899371    -0.11300
C866        C  0.64586789  0.50313149  0.60740924    -0.12800
C867        C  0.69919792  0.38676604  0.38653226    -0.11300
C868        C  0.69922185  0.36166568  0.36986880    -0.12800
C869        C  0.89880720  0.86097953  0.54054422    -0.11300
C870        C  0.88941150  0.88764232  0.54056572    -0.12800
C871        C  0.00874851  0.75162184  0.73568758    -0.11300
C872        C  0.02914681  0.74695576  0.77088837    -0.12800
C873        C  0.08019875  0.74648331  0.44426945    -0.11300
C874        C  0.04796984  0.74718257  0.46991222    -0.12800
C875        C  0.89875231  0.38763542  0.71587804    -0.11300
C876        C  0.88935747  0.36097216  0.71588502    -0.12800
C877        C  0.79789792  0.49711716  0.53647547    -0.11300
C878        C  0.83012766  0.49644816  0.56211762    -0.12800
C879        C  0.94917064  0.61175412  0.63652830    -0.11300
C880        C  0.94918987  0.63685603  0.61987245    -0.12800
C881        C  0.88938380  0.38758096  0.04048633    -0.11300
C882        C  0.89878323  0.36091682  0.04049542    -0.12800
C883        C  0.77915871  0.49687977  0.23555424    -0.11300
C884        C  0.75873222  0.50153820  0.27074149    -0.12800
C885        C  0.74022874  0.50141374  0.96986983    -0.11300
C886        C  0.70799246  0.50211624  0.94423678    -0.12800
C887        C  0.89585792  0.49539144  0.85741379    -0.11300
C888        C  0.89233132  0.49538387  0.89899927    -0.12800
C889        C  0.88942141  0.86092714  0.21601009    -0.11300
C890        C  0.89882998  0.88758911  0.21603512    -0.12800
C891        C  0.95800537  0.75208729  0.06223493    -0.11300
C892        C  0.99024750  0.75139557  0.03661264    -0.12800
C893        C  0.89589760  0.75318797  0.39900836    -0.11300
C894        C  0.89236394  0.75317055  0.35742725    -0.12800
C895        C  0.83890279  0.63680377  0.13658137    -0.11300
C896        C  0.83889245  0.61170534  0.11990739    -0.12800
C897        C  0.64877634  0.63762463  0.79049467    -0.11300
C898        C  0.63938232  0.61096083  0.79047239    -0.12800
C899        C  0.77931319  0.75159907  0.02083960    -0.11300
C900        C  0.75891273  0.74693770  0.98563971    -0.12800
C901        C  0.79788456  0.75143933  0.71986795    -0.11300
C902        C  0.83011148  0.75213270  0.69422343    -0.12800
C903        C  0.64881858  0.11095194  0.96600317    -0.11300
C904        C  0.63943680  0.13761801  0.96597004    -0.12800
C905        C  0.75889766  0.00163011  0.77090075    -0.11300
C906        C  0.77928029  0.99697028  0.73568797    -0.12800
C907        C  0.83015498  0.99644188  0.06233402    -0.11300
C908        C  0.79791892  0.99713973  0.03670032    -0.12800
C909        C  0.69930348  0.86173513  0.86994139    -0.11300
C910        C  0.69931562  0.88683009  0.88662349    -0.12800
C911        C  0.63935392  0.63755621  0.46591908    -0.11300
C912        C  0.64872279  0.61088827  0.46588661    -0.12800
C913        C  0.74028777  0.74711780  0.28662819    -0.11300
C914        C  0.70806698  0.74642202  0.31228071    -0.12800
C915        C  0.64224349  0.74537487  0.60750220    -0.11300
C916        C  0.64577910  0.74539227  0.64908298    -0.12800
C917        C  0.63936945  0.11088581  0.29055616    -0.11300
C918        C  0.64879037  0.13754515  0.29053895    -0.12800
C919        C  0.74024453  0.00139471  0.46990787    -0.11300
C920        C  0.70801152  0.00207124  0.44427299    -0.12800
C921        C  0.64575687  0.00313359  0.10748125    -0.11300
C922        C  0.64220550  0.00312756  0.14906042    -0.12800
C923        C  0.58893263  0.88677755  0.36994094    -0.11300
C924        C  0.58893053  0.86167890  0.38660946    -0.12800
C925        C  0.50894729  0.99685552  0.52090688    -0.11300
C926        C  0.52935219  0.00152418  0.48571241    -0.12800
C927        C  0.54800174  0.00137625  0.78661299    -0.11300
C928        C  0.58023049  0.00208469  0.81225379    -0.12800
C929        C  0.29800651  0.99712518  0.53663906    -0.11300
C930        C  0.33024180  0.99641258  0.56227136    -0.12800
C931        C  0.50886165  0.25159155  0.73565223    -0.11300
C932        C  0.52927071  0.24694128  0.77085203    -0.12800
C933        C  0.54792282  0.24709376  0.46987144    -0.11300
C934        C  0.58014684  0.24639835  0.44422259    -0.09600
C935        C  0.44930438  0.11167710  0.63659989    -0.11300
C936        C  0.44928950  0.13677726  0.61992966    -0.12800
C937        C  0.27929049  0.99694668  0.23568483    -0.11300
C938        C  0.25890905  0.00161609  0.27089351    -0.12800
C939        C  0.45792666  0.99640915  0.19433770    -0.11300
C940        C  0.49015097  0.99709829  0.21998517    -0.12800
C941        C  0.20792876  0.00208109  0.94432654    -0.11300
C942        C  0.24016783  0.00138723  0.96995501    -0.12800
C943        C  0.39231912  0.99534426  0.89906890    -0.11300
C944        C  0.39588797  0.99534722  0.85749030    -0.12800
C945        C  0.45809492  0.25209633  0.06222239    -0.11300
C946        C  0.49033290  0.25142275  0.03659086    -0.12800
C947        C  0.39231560  0.25311011  0.35744870    -0.11300
C948        C  0.39584942  0.25310209  0.39903188    -0.12800
C949        C  0.33895778  0.13679821  0.13656064    -0.11300
C950        C  0.33894083  0.11169806  0.11990001    -0.12800
C951        C  0.14876962  0.13758486  0.79053282    -0.11300
C952        C  0.13936654  0.11092340  0.79055464    -0.12800
C953        C  0.25897955  0.24688761  0.98559338    -0.11300
C954        C  0.27940204  0.25154496  0.02078313    -0.12800
C955        C  0.08023910  0.24642693  0.94430052    -0.11300
C956        C  0.04800574  0.24712065  0.96993685    -0.12800
C957        C  0.29793529  0.25136883  0.71988996    -0.11300
C958        C  0.33017179  0.25206021  0.69425872    -0.12800
C959        C  0.14874944  0.61092940  0.96586794    -0.11300
C960        C  0.13934280  0.63759040  0.96589512    -0.12800
C961        C  0.08017147  0.50211581  0.81207497    -0.11300
C962        C  0.04792831  0.50143846  0.78645101    -0.12800
C963        C  0.19926056  0.36170115  0.86988349    -0.11300
C964        C  0.19922213  0.38680360  0.88653841    -0.12800
C965        C  0.13940734  0.13761931  0.46598655    -0.11300
C966        C  0.14883397  0.11095961  0.46601198    -0.12800
C967        C  0.00892416  0.25160013  0.23560042    -0.11300
C968        C  0.02933157  0.24693869  0.27079586    -0.12800
C969        C  0.95793394  0.25212334  0.56212998    -0.11300
C970        C  0.99016643  0.25142767  0.53649231    -0.12800
C971        C  0.20800426  0.24644162  0.31219179    -0.11300
C972        C  0.24023618  0.24712721  0.28655184    -0.12800
C973        C  0.14223070  0.24539245  0.60744874    -0.11300
C974        C  0.14578568  0.24538450  0.64903100    -0.12800
C975        C  0.13935514  0.61096806  0.29048458    -0.11300
C976        C  0.14877241  0.63762895  0.29050574    -0.12800
C977        C  0.02927346  0.50164465  0.48560419    -0.11300
C978        C  0.00884337  0.49698791  0.52078949    -0.12800
C979        C  0.99013521  0.49714579  0.21993267    -0.11300
C980        C  0.95790503  0.49643602  0.19429353    -0.12800
C981        C  0.14216665  0.50319066  0.14894534    -0.11300
C982        C  0.14570185  0.50318470  0.10736017    -0.12800
C983        C  0.08891655  0.38683593  0.36986456    -0.11300
C984        C  0.08892532  0.36173513  0.38653127    -0.12800
C985        C  0.39877051  0.86092188  0.04057110    -0.11300
C986        C  0.38934532  0.88758020  0.04057346    -0.12800
C987        C  0.52943592  0.74692947  0.27081611    -0.11300
C988        C  0.50903019  0.75160125  0.23562200    -0.12800
C989        C  0.58021154  0.74645744  0.94430782    -0.11300
C990        C  0.54797155  0.74714736  0.96993374    -0.12800
C991        C  0.33030315  0.75209247  0.19436930    -0.11300
C992        C  0.29807027  0.75140198  0.22000620    -0.12800
C993        C  0.39874721  0.38757906  0.21585035    -0.11300
C994        C  0.38937180  0.36091340  0.21588011    -0.12800
C995        C  0.52924185  0.50164007  0.98557337    -0.11300
C996        C  0.50880891  0.49697006  0.02075353    -0.12800
C997        C  0.29784579  0.49711136  0.03651184    -0.11300
C998        C  0.33008743  0.49642737  0.06213579    -0.12800
C999        C  0.54784140  0.50135207  0.28651931    -0.11300
C1000       C  0.58006635  0.50203290  0.31216392    -0.12800
C1001       C  0.44925548  0.61170585  0.13655389    -0.11300
C1002       C  0.44929777  0.63681157  0.11991198    -0.12800
C1003       C  0.38941748  0.86088570  0.71602957    -0.11300
C1004       C  0.39882915  0.88754802  0.71603904    -0.12800
C1005       C  0.27927518  0.75160218  0.52086614    -0.11300
C1006       C  0.25886463  0.74694285  0.48567148    -0.12800
C1007       C  0.45795795  0.75202323  0.56223815    -0.11300
C1008       C  0.49018393  0.75132958  0.53659091    -0.12800
C1009       C  0.24011922  0.74711190  0.78651116    -0.11300
C1010       C  0.20788038  0.74642593  0.81214126    -0.12800
C1011       C  0.39219196  0.75310572  0.85750469    -0.11300
C1012       C  0.39576660  0.75311934  0.89908489    -0.12800
C1013       C  0.38936632  0.38755763  0.54046471    -0.11300
C1014       C  0.39876252  0.36089354  0.54048017    -0.12800
C1015       C  0.27933666  0.49688839  0.73561144    -0.11300
C1016       C  0.25891634  0.50155338  0.77080025    -0.12800
C1017       C  0.45802751  0.49643267  0.69418765    -0.11300
C1018       C  0.49025750  0.49713917  0.71982937    -0.12800
C1019       C  0.20797737  0.50209372  0.44421259    -0.11300
C1020       C  0.24020365  0.50138306  0.46985848    -0.12800
C1021       C  0.39575282  0.49533956  0.35736734    -0.11300
C1022       C  0.39223103  0.49533873  0.39895209    -0.12800
C1023       C  0.33887930  0.61168315  0.61987591    -0.11300
C1024       C  0.33886101  0.63677626  0.63656952    -0.12800
loop_ 
_geom_bond_atom_site_label_1 
_geom_bond_atom_site_label_2 
_geom_bond_distance 
_geom_bond_site_symmetry_2 
_ccdc_geom_bond_type 
O1           Ni7   1.924       .  S
O1           C22   1.270       .  A
O2          Ni25   1.894       .  S
O2           C11   1.264       .  A
O3           Ni7   1.902       .  S
O3          Ni25   1.891       .  S
O3          Ni19   1.902       .  S
O3           H26   0.966       .  S
C4           O21   1.269       .  A
C4           O13   1.271       .  A
C4         C1022   1.424       .  S
O5          Ni24   1.934       .  S
O5           C11   1.271       .  A
O6          Ni24   1.906       .  S
O6            C8   1.269       .  A
Ni7          O10   1.916       .  S
Ni7          O12   1.914       .  S
C8           O18   1.279       .  A
C8         C1020   1.448       .  S
O9          Ni25   1.915       .  S
O9           C15   1.275       .  A
O10          C15   1.275       .  A
C11        C1023   1.431       .  S
O12          C14   1.267       .  A
O13         Ni24   1.923       .  S
C14          O20   1.273       .  A
C14        C1017   1.449       .  S
C15        C1015   1.424       .  S
H16          O17   0.966       .  S
O17         Ni25   1.916       .  S
O17         Ni19   1.917       .  S
O17         Ni24   1.914       .  S
O18         Ni19   1.960       .  S
Ni19         O23   1.915       .  S
Ni19         O21   1.902       .  S
O20         Ni25   1.939       .  S
C22          O23   1.269       .  A
C22        C1013   1.435       .  S
O27         Ni33   1.924       .  S
O27          C48   1.270       .  A
O28         Ni51   1.894       .  S
O28          C37   1.264       .  A
O29         Ni33   1.901       .  S
O29         Ni51   1.891       .  S
O29         Ni45   1.902       .  S
O29          H52   0.966       .  S
C30          O47   1.269       .  A
C30          O39   1.271       .  A
C30        C1011   1.424       .  S
O31         Ni50   1.934       .  S
O31          C37   1.271       .  A
O32         Ni50   1.906       .  S
O32          C34   1.269       .  A
Ni33         O36   1.916       .  S
Ni33         O38   1.914       .  S
C34          O44   1.279       .  A
C34        C1009   1.448       .  S
O35         Ni51   1.915       .  S
O35          C41   1.275       .  A
O36          C41   1.275       .  A
C37        C1024   1.431       .  S
O38          C40   1.267       .  A
O39         Ni50   1.923       .  S
C40          O46   1.273       .  A
C40        C1007   1.449       .  S
C41        C1005   1.424       .  S
H42          O43   0.966       .  S
O43         Ni51   1.916       .  S
O43         Ni45   1.917       .  S
O43         Ni50   1.914       .  S
O44         Ni45   1.960       .  S
Ni45         O49   1.915       .  S
Ni45         O47   1.902       .  S
O46         Ni51   1.939       .  S
C48          O49   1.269       .  A
C48        C1003   1.435       .  S
O53         Ni59   1.924       .  S
O53          C74   1.270       .  A
O54         Ni77   1.894       .  S
O54          C63   1.264       .  A
O55         Ni59   1.901       .  S
O55         Ni77   1.891       .  S
O55         Ni71   1.903       .  S
O55          H78   0.966       .  S
C56          O73   1.269       .  A
C56          O65   1.271       .  A
C56        C1021   1.424       .  S
O57         Ni76   1.934       .  S
O57          C63   1.271       .  A
O58         Ni76   1.906       .  S
O58          C60   1.269       .  A
Ni59         O62   1.916       .  S
Ni59         O64   1.914       .  S
C60          O70   1.279       .  A
C60         C999   1.448       .  S
O61         Ni77   1.915       .  S
O61          C67   1.275       .  A
O62          C67   1.275       .  A
C63        C1001   1.431       .  S
O64          C66   1.267       .  A
O65         Ni76   1.923       .  S
C66          O72   1.273       .  A
C66         C998   1.449       .  S
C67         C996   1.424       .  S
H68          O69   0.966       .  S
O69         Ni77   1.916       .  S
O69         Ni71   1.917       .  S
O69         Ni76   1.914       .  S
O70         Ni71   1.959       .  S
Ni71         O75   1.915       .  S
Ni71         O73   1.902       .  S
O72         Ni77   1.939       .  S
C74          O75   1.269       .  A
C74         C993   1.435       .  S
O79         Ni85   1.924       .  S
O79         C100   1.270       .  A
O80        Ni103   1.894       .  S
O80          C89   1.264       .  A
O81         Ni85   1.901       .  S
O81        Ni103   1.891       .  S
O81         Ni97   1.903       .  S
O81         H104   0.966       .  S
C82          O99   1.269       .  A
C82          O91   1.271       .  A
C82        C1012   1.424       .  S
O83        Ni102   1.934       .  S
O83          C89   1.271       .  A
O84        Ni102   1.906       .  S
O84          C86   1.269   1_554  A
Ni85         O88   1.916       .  S
Ni85         O90   1.914       .  S
C86          O96   1.279   1_556  A
C86         C990   1.448       .  S
O87        Ni103   1.915       .  S
O87          C93   1.275       .  A
O88          C93   1.275       .  A
C89        C1002   1.431       .  S
O90          C92   1.267       .  A
O91        Ni102   1.923   1_556  S
C92          O98   1.273       .  A
C92         C991   1.449       .  S
C93         C988   1.424       .  S
H94          O95   0.966       .  S
O95        Ni103   1.916       .  S
O95         Ni97   1.917       .  S
O95        Ni102   1.914       .  S
O96         Ni97   1.960       .  S
Ni97        O101   1.915       .  S
Ni97         O99   1.902   1_554  S
O98        Ni103   1.939       .  S
C100        O101   1.269       .  A
C100        C985   1.435       .  S
O105       Ni111   1.934       .  S
O105        C126   1.271       .  A
O106       Ni129   1.915       .  S
O106        C115   1.269       .  A
O107       Ni111   1.914       .  S
O107       Ni129   1.917       .  S
O107       Ni123   1.916       .  S
O107        H130   0.966       .  S
C108        O125   1.275       .  A
C108        O117   1.275       .  A
C108        C977   1.424       .  S
O109       Ni128   1.924       .  S
O109        C115   1.270       .  A
O110       Ni128   1.914       .  S
O110        C112   1.267       .  A
Ni111       O114   1.923       .  S
Ni111       O116   1.906       .  S
C112        O122   1.273       .  A
C112       C1019   1.449       .  S
O113       Ni129   1.902       .  S
O113        C119   1.269       .  A
O114        C119   1.271       .  A
C115        C975   1.435       .  S
O116        C118   1.269       .  A
O117       Ni128   1.916       .  S
C118        O124   1.279       .  A
C118        C979   1.448   1_455  S
C119        C981   1.424       .  S
H120        O121   0.966       .  S
O121       Ni129   1.902       .  S
O121       Ni123   1.891       .  S
O121       Ni128   1.901       .  S
O122       Ni123   1.939       .  S
Ni123       O127   1.894       .  S
Ni123       O125   1.915       .  S
O124       Ni129   1.960       .  S
C126        O127   1.264       .  A
C126        C983   1.431       .  S
O131       Ni137   1.934       .  S
O131        C152   1.271       .  A
O132       Ni155   1.915       .  S
O132        C141   1.269       .  A
O133       Ni137   1.914       .  S
O133       Ni155   1.917       .  S
O133       Ni149   1.916       .  S
O133        H156   0.966       .  S
C134        O151   1.275       .  A
C134        O143   1.275       .  A
C134        C968   1.424       .  S
O135       Ni154   1.924       .  S
O135        C141   1.270       .  A
O136       Ni154   1.914       .  S
O136        C138   1.267       .  A
Ni137       O140   1.923       .  S
Ni137       O142   1.906       .  S
C138        O148   1.273       .  A
C138        C971   1.449       .  S
O139       Ni155   1.902       .  S
O139        C145   1.269       .  A
O140        C145   1.271       .  A
C141        C965   1.435       .  S
O142        C144   1.269       .  A
O143       Ni154   1.916       .  S
C144        O150   1.279       .  A
C144        C970   1.448   1_455  S
C145        C973   1.424       .  S
H146        O147   0.966       .  S
O147       Ni155   1.902       .  S
O147       Ni149   1.891       .  S
O147       Ni154   1.901       .  S
O148       Ni149   1.939       .  S
Ni149       O153   1.894       .  S
Ni149       O151   1.915       .  S
O150       Ni155   1.960       .  S
C152        O153   1.264       .  A
C152        C984   1.431       .  S
O157       Ni163   1.934       .  S
O157        C178   1.271       .  A
O158       Ni181   1.915       .  S
O158        C167   1.269       .  A
O159       Ni163   1.914       .  S
O159       Ni181   1.917       .  S
O159       Ni175   1.916       .  S
O159        H182   0.966       .  S
C160        O177   1.275       .  A
C160        O169   1.275       .  A
C160       C1016   1.424       .  S
O161       Ni180   1.924       .  S
O161        C167   1.270       .  A
O162       Ni180   1.914       .  S
O162        C164   1.267       .  A
Ni163       O166   1.923   1_556  S
Ni163       O168   1.906       .  S
C164        O174   1.273       .  A
C164        C961   1.449       .  S
O165       Ni181   1.902   1_554  S
O165        C171   1.269       .  A
O166        C171   1.271       .  A
C167        C959   1.435       .  S
O168        C170   1.269   1_556  A
O169       Ni180   1.916       .  S
C170        O176   1.279       .  A
C170        C997   1.448       .  S
C171        C982   1.424       .  S
H172        O173   0.966       .  S
O173       Ni181   1.902       .  S
O173       Ni175   1.891       .  S
O173       Ni180   1.901       .  S
O174       Ni175   1.939       .  S
Ni175       O179   1.894       .  S
Ni175       O177   1.915       .  S
O176       Ni181   1.959   1_554  S
C178        O179   1.264       .  A
C178        C964   1.431       .  S
O183       Ni189   1.934       .  S
O183        C204   1.271       .  A
O184       Ni207   1.915       .  S
O184        C193   1.269       .  A
O185       Ni189   1.914       .  S
O185       Ni207   1.917       .  S
O185       Ni201   1.916       .  S
O185        H208   0.966       .  S
C186        O203   1.275       .  A
C186        O195   1.275       .  A
C186        C953   1.424       .  S
O187       Ni206   1.924       .  S
O187        C193   1.270       .  A
O188       Ni206   1.914       .  S
O188        C190   1.267       .  A
Ni189       O192   1.923       .  S
Ni189       O194   1.906       .  S
C190        O200   1.273       .  A
C190        C955   1.449       .  S
O191       Ni207   1.902       .  S
O191        C197   1.269       .  A
O192        C197   1.271       .  A
C193        C951   1.435       .  S
O194        C196   1.269       .  A
O195       Ni206   1.916       .  S
C196        O202   1.279       .  A
C196        C957   1.448       .  S
C197        C974   1.424       .  S
H198        O199   0.966       .  S
O199       Ni207   1.903       .  S
O199       Ni201   1.891       .  S
O199       Ni206   1.901       .  S
O200       Ni201   1.939       .  S
Ni201       O205   1.894       .  S
Ni201       O203   1.915       .  S
O202       Ni207   1.960       .  S
C204        O205   1.264       .  A
C204        C963   1.431       .  S
O209       Ni215   1.924       .  S
O209        C230   1.270       .  A
O210       Ni233   1.894       .  S
O210        C219   1.264       .  A
O211       Ni215   1.901       .  S
O211       Ni233   1.891       .  S
O211       Ni227   1.903       .  S
O211        H234   0.966       .  S
C212        O229   1.269       .  A
C212        O221   1.271       .  A
C212        C947   1.424       .  S
O213       Ni232   1.934       .  S
O213        C219   1.271       .  A
O214       Ni232   1.906       .  S
O214        C216   1.269       .  A
Ni215       O218   1.916       .  S
Ni215       O220   1.914       .  S
C216        O226   1.279       .  A
C216        C972   1.448       .  S
O217       Ni233   1.915       .  S
O217        C223   1.275       .  A
O218        C223   1.275       .  A
C219        C949   1.431       .  S
O220        C222   1.267       .  A
O221       Ni232   1.923       .  S
C222        O228   1.273       .  A
C222        C945   1.449       .  S
C223        C954   1.424       .  S
H224        O225   0.966       .  S
O225       Ni233   1.916       .  S
O225       Ni227   1.917       .  S
O225       Ni232   1.914       .  S
O226       Ni227   1.960       .  S
Ni227       O231   1.915       .  S
Ni227       O229   1.902       .  S
O228       Ni233   1.939       .  S
C230        O231   1.269       .  A
C230        C994   1.435       .  S
O235       Ni241   1.924       .  S
O235        C256   1.270       .  A
O236       Ni259   1.894       .  S
O236        C245   1.264       .  A
O237       Ni241   1.901       .  S
O237       Ni259   1.891   1_565  S
O237       Ni253   1.902       .  S
O237        H260   0.966       .  S
C238        O255   1.269   1_545  A
C238        O247   1.271       .  A
C238        C943   1.424   1_545  S
O239       Ni258   1.934       .  S
O239        C245   1.271       .  A
O240       Ni258   1.906       .  S
O240        C242   1.269   1_554  A
Ni241       O244   1.915       .  S
Ni241       O246   1.914       .  S
C242        O252   1.279   1_546  A
C242        C942   1.448       .  S
O243       Ni259   1.915       .  S
O243        C249   1.275   1_545  A
O244        C249   1.275       .  A
C245        C950   1.431       .  S
O246        C248   1.267       .  A
O247       Ni258   1.923   1_556  S
C248        O254   1.273   1_565  A
C248        C939   1.449       .  S
C249        C937   1.424       .  S
H250        O251   0.966       .  S
O251       Ni259   1.916       .  S
O251       Ni253   1.917   1_545  S
O251       Ni258   1.914       .  S
O252       Ni253   1.960       .  S
Ni253       O257   1.915       .  S
Ni253       O255   1.902   1_554  S
O254       Ni259   1.939       .  S
C256        O257   1.269       .  A
C256        C986   1.435       .  S
O261       Ni267   1.924       .  S
O261        C282   1.270       .  A
O262       Ni285   1.894       .  S
O262        C271   1.264       .  A
O263       Ni267   1.902       .  S
O263       Ni285   1.891       .  S
O263       Ni279   1.902       .  S
O263        H286   0.966       .  S
C264        O281   1.269       .  A
C264        O273   1.271       .  A
C264        C948   1.424       .  S
O265       Ni284   1.934       .  S
O265        C271   1.271       .  A
O266       Ni284   1.906       .  S
O266        C268   1.269       .  A
Ni267       O270   1.916       .  S
Ni267       O272   1.914       .  S
C268        O278   1.279       .  A
C268        C933   1.448       .  S
O269       Ni285   1.915       .  S
O269        C275   1.275       .  A
O270        C275   1.275       .  A
C271        C936   1.431       .  S
O272        C274   1.267       .  A
O273       Ni284   1.923       .  S
C274        O280   1.273       .  A
C274        C958   1.449       .  S
C275        C931   1.424       .  S
H276        O277   0.966       .  S
O277       Ni285   1.916       .  S
O277       Ni279   1.917       .  S
O277       Ni284   1.914       .  S
O278       Ni279   1.960       .  S
Ni279       O283   1.915       .  S
Ni279       O281   1.902       .  S
O280       Ni285   1.939       .  S
C282        O283   1.269       .  A
C282       C1014   1.435       .  S
O287       Ni293   1.924       .  S
O287        C308   1.270       .  A
O288       Ni311   1.894       .  S
O288        C297   1.264       .  A
O289       Ni293   1.902       .  S
O289       Ni311   1.891   1_565  S
O289       Ni305   1.902       .  S
O289        H312   0.966       .  S
C290        O307   1.269   1_545  A
C290        O299   1.271       .  A
C290        C944   1.424   1_545  S
O291       Ni310   1.934       .  S
O291        C297   1.271       .  A
O292       Ni310   1.906       .  S
O292        C294   1.269       .  A
Ni293       O296   1.916       .  S
Ni293       O298   1.914       .  S
C294        O304   1.279   1_545  A
C294        C927   1.448       .  S
O295       Ni311   1.915       .  S
O295        C301   1.275   1_545  A
O296        C301   1.275       .  A
C297        C935   1.431       .  S
O298        C300   1.267       .  A
O299       Ni310   1.923       .  S
C300        O306   1.273   1_565  A
C300        C930   1.449       .  S
C301        C925   1.424       .  S
H302        O303   0.966       .  S
O303       Ni311   1.916       .  S
O303       Ni305   1.917   1_545  S
O303       Ni310   1.914       .  S
O304       Ni305   1.960       .  S
Ni305       O309   1.915       .  S
Ni305       O307   1.902       .  S
O306       Ni311   1.939       .  S
C308        O309   1.269       .  A
C308       C1004   1.435       .  S
O313       Ni319   1.934       .  S
O313        C334   1.271       .  A
O314       Ni337   1.915       .  S
O314        C323   1.269       .  A
O315       Ni319   1.914       .  S
O315       Ni337   1.917   1_565  S
O315       Ni331   1.916       .  S
O315        H338   0.966       .  S
C316        O333   1.275   1_545  A
C316        O325   1.275       .  A
C316        C926   1.424       .  S
O317       Ni336   1.924       .  S
O317        C323   1.270       .  A
O318       Ni336   1.914       .  S
O318        C320   1.267       .  A
Ni319       O322   1.923       .  S
Ni319       O324   1.906       .  S
C320        O330   1.273   1_545  A
C320        C920   1.449       .  S
O321       Ni337   1.902       .  S
O321        C327   1.269   1_545  A
O322        C327   1.271       .  A
C323        C917   1.435       .  S
O324        C326   1.269       .  A
O325       Ni336   1.915       .  S
C326        O332   1.279   1_565  A
C326        C940   1.448       .  S
C327        C922   1.424   1_565  S
H328        O329   0.966       .  S
O329       Ni337   1.902       .  S
O329       Ni331   1.891   1_545  S
O329       Ni336   1.901       .  S
O330       Ni331   1.939       .  S
Ni331       O335   1.894       .  S
Ni331       O333   1.915       .  S
O332       Ni337   1.960       .  S
C334        O335   1.264       .  A
C334        C923   1.431       .  S
O339       Ni345   1.934       .  S
O339        C360   1.271       .  A
O340       Ni363   1.915       .  S
O340        C349   1.269       .  A
O341       Ni345   1.914       .  S
O341       Ni363   1.917       .  S
O341       Ni357   1.916       .  S
O341        H364   0.966       .  S
C342        O359   1.275       .  A
C342        O351   1.275       .  A
C342        C987   1.424       .  S
O343       Ni362   1.924       .  S
O343        C349   1.270       .  A
O344       Ni362   1.914       .  S
O344        C346   1.267       .  A
Ni345       O348   1.923       .  S
Ni345       O350   1.906       .  S
C346        O356   1.273       .  A
C346        C914   1.449       .  S
O347       Ni363   1.902       .  S
O347        C353   1.269       .  A
O348        C353   1.271       .  A
C349        C911   1.435       .  S
O350        C352   1.269       .  A
O351       Ni362   1.916       .  S
C352        O358   1.279       .  A
C352       C1008   1.448       .  S
C353        C915   1.424       .  S
H354        O355   0.966       .  S
O355       Ni363   1.903       .  S
O355       Ni357   1.891       .  S
O355       Ni362   1.901       .  S
O356       Ni357   1.939       .  S
Ni357       O361   1.894       .  S
Ni357       O359   1.915       .  S
O358       Ni363   1.960       .  S
C360        O361   1.264       .  A
C360        C924   1.431       .  S
O365       Ni371   1.934       .  S
O365        C386   1.271       .  A
O366       Ni389   1.915       .  S
O366        C375   1.269       .  A
O367       Ni371   1.914       .  S
O367       Ni389   1.917   1_565  S
O367       Ni383   1.916       .  S
O367        H390   0.966       .  S
C368        O385   1.275   1_545  A
C368        O377   1.275       .  A
C368        C905   1.424       .  S
O369       Ni388   1.924       .  S
O369        C375   1.270       .  A
O370       Ni388   1.914       .  S
O370        C372   1.267       .  A
Ni371       O374   1.923   1_556  S
Ni371       O376   1.906       .  S
C372        O382   1.273   1_545  A
C372        C928   1.449       .  S
O373       Ni389   1.902   1_554  S
O373        C379   1.269   1_545  A
O374        C379   1.271       .  A
C375        C903   1.435       .  S
O376        C378   1.269   1_556  A
O377       Ni388   1.916       .  S
C378        O384   1.279   1_565  A
C378        C908   1.448       .  S
C379        C921   1.424   1_565  S
H380        O381   0.966       .  S
O381       Ni389   1.902       .  S
O381       Ni383   1.891   1_545  S
O381       Ni388   1.902       .  S
O382       Ni383   1.939       .  S
Ni383       O387   1.894       .  S
Ni383       O385   1.915       .  S
O384       Ni389   1.960   1_554  S
C386        O387   1.264       .  A
C386        C910   1.431       .  S
O391       Ni397   1.934       .  S
O391        C412   1.271       .  A
O392       Ni415   1.915       .  S
O392        C401   1.269       .  A
O393       Ni397   1.914       .  S
O393       Ni415   1.917       .  S
O393       Ni409   1.916       .  S
O393        H416   0.966       .  S
C394        O411   1.275       .  A
C394        O403   1.275       .  A
C394        C900   1.424       .  S
O395       Ni414   1.924       .  S
O395        C401   1.270       .  A
O396       Ni414   1.914       .  S
O396        C398   1.267       .  A
Ni397       O400   1.923       .  S
Ni397       O402   1.906       .  S
C398        O408   1.273       .  A
C398        C989   1.449       .  S
O399       Ni415   1.902       .  S
O399        C405   1.269       .  A
O400        C405   1.271       .  A
C401        C897   1.435       .  S
O402        C404   1.269       .  A
O403       Ni414   1.916       .  S
C404        O410   1.279       .  A
C404        C901   1.448       .  S
C405        C916   1.424       .  S
H406        O407   0.966       .  S
O407       Ni415   1.902       .  S
O407       Ni409   1.891       .  S
O407       Ni414   1.902       .  S
O408       Ni409   1.939       .  S
Ni409       O413   1.894       .  S
Ni409       O411   1.915       .  S
O410       Ni415   1.960       .  S
C412        O413   1.264       .  A
C412        C909   1.431       .  S
O417       Ni423   1.924       .  S
O417        C438   1.270       .  A
O418       Ni441   1.894       .  S
O418        C427   1.264       .  A
O419       Ni423   1.902       .  S
O419       Ni441   1.892       .  S
O419       Ni435   1.902       .  S
O419        H442   0.966       .  S
C420        O437   1.269       .  A
C420        O429   1.271       .  A
C420        C894   1.424       .  S
O421       Ni440   1.934       .  S
O421        C427   1.271       .  A
O422       Ni440   1.906       .  S
O422        C424   1.269       .  A
Ni423       O426   1.916       .  S
Ni423       O428   1.914       .  S
C424        O434   1.279       .  A
C424        C913   1.448       .  S
O425       Ni441   1.915       .  S
O425        C431   1.275       .  A
O426        C431   1.275       .  A
C427        C895   1.431       .  S
O428        C430   1.267       .  A
O429       Ni440   1.923       .  S
C430        O436   1.273       .  A
C430        C891   1.449       .  S
C431        C899   1.424       .  S
H432        O433   0.966       .  S
O433       Ni441   1.916       .  S
O433       Ni435   1.917       .  S
O433       Ni440   1.914       .  S
O434       Ni435   1.960       .  S
Ni435       O439   1.915       .  S
Ni435       O437   1.902       .  S
O436       Ni441   1.939       .  S
C438        O439   1.269       .  A
C438        C889   1.435       .  S
O443       Ni449   1.924       .  S
O443        C464   1.270       .  A
O444       Ni467   1.894       .  S
O444        C453   1.264       .  A
O445       Ni449   1.901       .  S
O445       Ni467   1.891       .  S
O445       Ni461   1.902       .  S
O445        H468   0.966       .  S
C446        O463   1.269       .  A
C446        O455   1.271       .  A
C446        C888   1.424       .  S
O447       Ni466   1.934       .  S
O447        C453   1.271       .  A
O448       Ni466   1.906       .  S
O448        C450   1.269   1_554  A
Ni449       O452   1.916       .  S
Ni449       O454   1.914       .  S
C450        O460   1.279   1_556  A
C450        C885   1.448       .  S
O451       Ni467   1.915       .  S
O451        C457   1.275       .  A
O452        C457   1.275       .  A
C453        C896   1.431       .  S
O454        C456   1.267       .  A
O455       Ni466   1.923   1_556  S
C456        O462   1.273       .  A
C456        C980   1.449       .  S
C457        C883   1.424       .  S
H458        O459   0.966       .  S
O459       Ni467   1.916       .  S
O459       Ni461   1.917       .  S
O459       Ni466   1.914       .  S
O460       Ni461   1.960       .  S
Ni461       O465   1.915       .  S
Ni461       O463   1.902   1_554  S
O462       Ni467   1.939       .  S
C464        O465   1.269       .  A
C464        C881   1.435       .  S
O469       Ni475   1.924       .  S
O469        C490   1.270       .  A
O470       Ni493   1.894       .  S
O470        C479   1.264       .  A
O471       Ni475   1.901       .  S
O471       Ni493   1.891       .  S
O471       Ni487   1.902       .  S
O471        H494   0.966       .  S
C472        O489   1.269       .  A
C472        O481   1.271       .  A
C472        C887   1.424       .  S
O473       Ni492   1.934       .  S
O473        C479   1.271       .  A
O474       Ni492   1.906       .  S
O474        C476   1.269   1_655  A
Ni475       O478   1.916       .  S
Ni475       O480   1.914       .  S
C476        O486   1.279   1_455  A
C476        C962   1.448       .  S
O477       Ni493   1.915       .  S
O477        C483   1.275       .  A
O478        C483   1.275       .  A
C479        C879   1.431       .  S
O480        C482   1.267       .  A
O481       Ni492   1.923       .  S
C482        O488   1.273       .  A
C482        C878   1.449       .  S
C483        C978   1.424   1_655  S
H484        O485   0.966       .  S
O485       Ni493   1.916       .  S
O485       Ni487   1.917       .  S
O485       Ni492   1.914       .  S
O486       Ni487   1.960       .  S
Ni487       O491   1.915       .  S
Ni487       O489   1.902       .  S
O488       Ni493   1.939       .  S
C490        O491   1.269       .  A
C490        C875   1.435       .  S
O495       Ni501   1.924       .  S
O495        C516   1.270       .  A
O496       Ni519   1.894       .  S
O496        C505   1.264       .  A
O497       Ni501   1.901       .  S
O497       Ni519   1.891       .  S
O497       Ni513   1.902       .  S
O497        H520   0.966       .  S
C498        O515   1.269       .  A
C498        O507   1.271       .  A
C498        C893   1.424       .  S
O499       Ni518   1.934       .  S
O499        C505   1.271       .  A
O500       Ni518   1.906       .  S
O500        C502   1.269   1_655  A
Ni501       O504   1.915       .  S
Ni501       O506   1.914       .  S
C502        O512   1.279   1_455  A
C502        C874   1.448       .  S
O503       Ni519   1.915       .  S
O503        C509   1.275       .  A
O504        C509   1.275       .  A
C505        C880   1.431       .  S
O506        C508   1.267       .  A
O507       Ni518   1.923       .  S
C508        O514   1.273       .  A
C508        C902   1.449       .  S
C509        C871   1.424   1_655  S
H510        O511   0.966       .  S
O511       Ni519   1.916       .  S
O511       Ni513   1.917       .  S
O511       Ni518   1.914       .  S
O512       Ni513   1.960       .  S
Ni513       O517   1.915       .  S
Ni513       O515   1.902       .  S
O514       Ni519   1.939       .  S
C516        O517   1.269       .  A
C516        C869   1.435       .  S
O521       Ni527   1.934       .  S
O521        C542   1.271       .  A
O522       Ni545   1.915       .  S
O522        C531   1.269       .  A
O523       Ni527   1.914       .  S
O523       Ni545   1.917       .  S
O523       Ni539   1.916       .  S
O523        H546   0.966       .  S
C524        O541   1.275       .  A
C524        O533   1.275       .  A
C524        C884   1.424       .  S
O525       Ni544   1.924       .  S
O525        C531   1.270       .  A
O526       Ni544   1.914       .  S
O526        C528   1.267       .  A
Ni527       O530   1.923       .  S
Ni527       O532   1.906       .  S
C528        O538   1.273       .  A
C528       C1000   1.449       .  S
O529       Ni545   1.902       .  S
O529        C535   1.269       .  A
O530        C535   1.271       .  A
C531        C912   1.435       .  S
O532        C534   1.269       .  A
O533       Ni544   1.916       .  S
C534        O540   1.279       .  A
C534        C877   1.448       .  S
C535        C866   1.424       .  S
H536        O537   0.966       .  S
O537       Ni545   1.902       .  S
O537       Ni539   1.891       .  S
O537       Ni544   1.901       .  S
O538       Ni539   1.939       .  S
Ni539       O543   1.894       .  S
Ni539       O541   1.915       .  S
O540       Ni545   1.959       .  S
C542        O543   1.264       .  A
C542        C867   1.431       .  S
O547       Ni553   1.934       .  S
O547        C568   1.271       .  A
O548       Ni571   1.915       .  S
O548        C557   1.269       .  A
O549       Ni553   1.914       .  S
O549       Ni571   1.917       .  S
O549       Ni565   1.916       .  S
O549        H572   0.966       .  S
C550        O567   1.275       .  A
C550        O559   1.275       .  A
C550        C859   1.424       .  S
O551       Ni570   1.924       .  S
O551        C557   1.270       .  A
O552       Ni570   1.914       .  S
O552        C554   1.267       .  A
Ni553       O556   1.923       .  S
Ni553       O558   1.906       .  S
C554        O564   1.273       .  A
C554        C934   1.449       .  S
O555       Ni571   1.902       .  S
O555        C561   1.269       .  A
O556        C561   1.271       .  A
C557        C918   1.435       .  S
O558        C560   1.269       .  A
O559       Ni570   1.916       .  S
C560        O566   1.279       .  A
C560        C861   1.448       .  S
C561        C863   1.424       .  S
H562        O563   0.966       .  S
O563       Ni571   1.903       .  S
O563       Ni565   1.891       .  S
O563       Ni570   1.901       .  S
O564       Ni565   1.939       .  S
Ni565       O569   1.894       .  S
Ni565       O567   1.915       .  S
O566       Ni571   1.960       .  S
C568        O569   1.264       .  A
C568        C868   1.431       .  S
O573       Ni579   1.934       .  S
O573        C594   1.271       .  A
O574       Ni597   1.915       .  S
O574        C583   1.269       .  A
O575       Ni579   1.914       .  S
O575       Ni597   1.917       .  S
O575       Ni591   1.916       .  S
O575        H598   0.966       .  S
C576        O593   1.275       .  A
C576        O585   1.275       .  A
C576        C995   1.424       .  S
O577       Ni596   1.924       .  S
O577        C583   1.270       .  A
O578       Ni596   1.914       .  S
O578        C580   1.267       .  A
Ni579       O582   1.923       .  S
Ni579       O584   1.906       .  S
C580        O590   1.273       .  A
C580        C886   1.449       .  S
O581       Ni597   1.902       .  S
O581        C587   1.269       .  A
O582        C587   1.271       .  A
C583        C898   1.435       .  S
O584        C586   1.269       .  A
O585       Ni596   1.916       .  S
C586        O592   1.279       .  A
C586       C1018   1.448       .  S
C587        C865   1.424       .  S
H588        O589   0.966       .  S
O589       Ni597   1.903       .  S
O589       Ni591   1.891       .  S
O589       Ni596   1.902       .  S
O590       Ni591   1.939       .  S
Ni591       O595   1.894       .  S
Ni591       O593   1.915       .  S
O592       Ni597   1.960       .  S
C594        O595   1.264       .  A
C594        C857   1.431       .  S
O599       Ni605   1.934       .  S
O599        C620   1.271       .  A
O600       Ni623   1.915       .  S
O600        C609   1.269       .  A
O601       Ni605   1.914       .  S
O601       Ni623   1.917       .  S
O601       Ni617   1.916       .  S
O601        H624   0.966       .  S
C602        O619   1.275       .  A
C602        O611   1.275       .  A
C602        C932   1.424       .  S
O603       Ni622   1.924       .  S
O603        C609   1.270       .  A
O604       Ni622   1.914       .  S
O604        C606   1.267       .  A
Ni605       O608   1.923   1_556  S
Ni605       O610   1.906       .  S
C606        O616   1.273       .  A
C606        C856   1.449       .  S
O607       Ni623   1.902   1_554  S
O607        C613   1.269       .  A
O608        C613   1.271       .  A
C609        C904   1.435       .  S
O610        C612   1.269   1_556  A
O611       Ni622   1.916       .  S
C612        O618   1.279       .  A
C612        C946   1.448       .  S
C613        C864   1.424       .  S
H614        O615   0.966       .  S
O615       Ni623   1.902       .  S
O615       Ni617   1.891       .  S
O615       Ni622   1.902       .  S
O616       Ni617   1.939       .  S
Ni617       O621   1.894       .  S
Ni617       O619   1.915       .  S
O618       Ni623   1.960   1_554  S
C620        O621   1.264       .  A
C620        C858   1.431       .  S
O625       Ni631   1.934       .  S
O625        C646   1.271       .  A
O626       Ni649   1.915       .  S
O626        C635   1.269       .  A
O627       Ni631   1.914       .  S
O627       Ni649   1.917   1_565  S
O627       Ni643   1.916       .  S
O627        H650   0.966       .  S
C628        O645   1.275   1_545  A
C628        O637   1.275       .  A
C628        C847   1.424       .  S
O629       Ni648   1.924       .  S
O629        C635   1.270       .  A
O630       Ni648   1.914       .  S
O630        C632   1.267       .  A
Ni631       O634   1.923       .  S
Ni631       O636   1.906       .  S
C632        O642   1.273   1_545  A
C632        C941   1.449       .  S
O633       Ni649   1.902       .  S
O633        C639   1.269   1_545  A
O634        C639   1.271       .  A
C635        C952   1.435       .  S
O636        C638   1.269       .  A
O637       Ni648   1.916       .  S
C638        O644   1.279   1_565  A
C638        C850   1.448   1_455  S
C639        C852   1.424   1_565  S
H640        O641   0.966       .  S
O641       Ni649   1.902       .  S
O641       Ni643   1.891   1_545  S
O641       Ni648   1.901       .  S
O642       Ni643   1.939       .  S
Ni643       O647   1.894       .  S
Ni643       O645   1.915       .  S
O644       Ni649   1.959       .  S
C646        O647   1.264       .  A
C646        C853   1.431       .  S
O651       Ni657   1.934       .  S
O651        C672   1.271       .  A
O652       Ni675   1.915       .  S
O652        C661   1.269       .  A
O653       Ni657   1.914       .  S
O653       Ni675   1.917       .  S
O653       Ni669   1.916       .  S
O653        H676   0.966       .  S
C654        O671   1.275       .  A
C654        O663   1.275       .  A
C654        C872   1.424       .  S
O655       Ni674   1.924       .  S
O655        C661   1.270       .  A
O656       Ni674   1.914       .  S
O656        C658   1.267       .  A
Ni657       O660   1.923   1_556  S
Ni657       O662   1.906       .  S
C658        O668   1.273       .  A
C658       C1010   1.449       .  S
O659       Ni675   1.902   1_554  S
O659        C665   1.269       .  A
O660        C665   1.271       .  A
C661        C960   1.435       .  S
O662        C664   1.269   1_556  A
O663       Ni674   1.916       .  S
C664        O670   1.279       .  A
C664        C892   1.448   1_455  S
C665        C845   1.424       .  S
H666        O667   0.966       .  S
O667       Ni675   1.903       .  S
O667       Ni669   1.891       .  S
O667       Ni674   1.901       .  S
O668       Ni669   1.939       .  S
Ni669       O673   1.894       .  S
Ni669       O671   1.915       .  S
O670       Ni675   1.959   1_554  S
C672        O673   1.264       .  A
C672        C854   1.431       .  S
O677       Ni683   1.934       .  S
O677        C698   1.271       .  A
O678       Ni701   1.915       .  S
O678        C687   1.269       .  A
O679       Ni683   1.914       .  S
O679       Ni701   1.917   1_565  S
O679       Ni695   1.916       .  S
O679        H702   0.966       .  S
C680        O697   1.275   1_545  A
C680        O689   1.275       .  A
C680        C938   1.424       .  S
O681       Ni700   1.924       .  S
O681        C687   1.270       .  A
O682       Ni700   1.914       .  S
O682        C684   1.267       .  A
Ni683       O686   1.923       .  S
Ni683       O688   1.906       .  S
C684        O694   1.273   1_545  A
C684        C842   1.449       .  S
O685       Ni701   1.902       .  S
O685        C691   1.269   1_545  A
O686        C691   1.271       .  A
C687        C966   1.435       .  S
O688        C690   1.269       .  A
O689       Ni700   1.915       .  S
C690        O696   1.279   1_565  A
C690        C929   1.448       .  S
C691        C851   1.424   1_565  S
H692        O693   0.966       .  S
O693       Ni701   1.902       .  S
O693       Ni695   1.891   1_545  S
O693       Ni700   1.901       .  S
O694       Ni695   1.939       .  S
Ni695       O699   1.894       .  S
Ni695       O697   1.915       .  S
O696       Ni701   1.960       .  S
C698        O699   1.264       .  A
C698        C843   1.431       .  S
O703       Ni709   1.934       .  S
O703        C724   1.271       .  A
O704       Ni727   1.915       .  S
O704        C713   1.269       .  A
O705       Ni709   1.914       .  S
O705       Ni727   1.917       .  S
O705       Ni721   1.916       .  S
O705        H728   0.966       .  S
C706        O723   1.275       .  A
C706        O715   1.275       .  A
C706       C1006   1.424       .  S
O707       Ni726   1.924       .  S
O707        C713   1.270       .  A
O708       Ni726   1.914       .  S
O708        C710   1.267       .  A
Ni709       O712   1.923       .  S
Ni709       O714   1.906       .  S
C710        O720   1.273       .  A
C710        C873   1.449       .  S
O711       Ni727   1.902       .  S
O711        C717   1.269       .  A
O712        C717   1.271       .  A
C713        C976   1.435       .  S
O714        C716   1.269       .  A
O715       Ni726   1.916       .  S
C716        O722   1.279       .  A
C716        C992   1.448       .  S
C717        C846   1.424       .  S
H718        O719   0.966       .  S
O719       Ni727   1.902       .  S
O719       Ni721   1.891       .  S
O719       Ni726   1.901       .  S
O720       Ni721   1.939       .  S
Ni721       O725   1.894       .  S
Ni721       O723   1.915       .  S
O722       Ni727   1.960       .  S
C724        O725   1.264       .  A
C724        C844   1.431       .  S
O729       Ni735   1.924       .  S
O729        C750   1.270       .  A
O730       Ni753   1.894       .  S
O730        C739   1.264       .  A
O731       Ni735   1.901       .  S
O731       Ni753   1.891       .  S
O731       Ni747   1.903       .  S
O731        H754   0.966       .  S
C732        O749   1.269       .  A
C732        O741   1.271       .  A
C732        C837   1.424       .  S
O733       Ni752   1.934       .  S
O733        C739   1.271       .  A
O734       Ni752   1.906       .  S
O734        C736   1.269       .  A
Ni735       O738   1.916       .  S
Ni735       O740   1.914       .  S
C736        O746   1.279       .  A
C736        C855   1.448       .  S
O737       Ni753   1.915       .  S
O737        C743   1.275       .  A
O738        C743   1.275       .  A
C739        C839   1.431       .  S
O740        C742   1.267       .  A
O741       Ni752   1.923       .  S
C742        O748   1.273       .  A
C742        C969   1.449       .  S
C743        C860   1.424       .  S
H744        O745   0.966       .  S
O745       Ni753   1.916       .  S
O745       Ni747   1.917       .  S
O745       Ni752   1.914       .  S
O746       Ni747   1.959       .  S
Ni747       O751   1.915       .  S
Ni747       O749   1.902       .  S
O748       Ni753   1.939       .  S
C750        O751   1.269       .  A
C750        C876   1.435       .  S
O755       Ni761   1.924       .  S
O755        C776   1.270       .  A
O756       Ni779   1.894       .  S
O756        C765   1.264       .  A
O757       Ni761   1.901       .  S
O757       Ni779   1.891   1_565  S
O757       Ni773   1.902       .  S
O757        H780   0.966       .  S
C758        O775   1.269   1_545  A
C758        O767   1.271       .  A
C758        C836   1.424   1_545  S
O759       Ni778   1.934       .  S
O759        C765   1.271       .  A
O760       Ni778   1.906       .  S
O760        C762   1.269       .  A
Ni761       O764   1.916       .  S
Ni761       O766   1.914       .  S
C762        O772   1.279   1_545  A
C762        C919   1.448       .  S
O763       Ni779   1.915       .  S
O763        C769   1.275   1_545  A
O764        C769   1.275       .  A
C765        C840   1.431       .  S
O766        C768   1.267       .  A
O767       Ni778   1.923       .  S
C768        O774   1.273   1_565  A
C768        C849   1.449       .  S
C769        C906   1.424       .  S
H770        O771   0.966       .  S
O771       Ni779   1.916       .  S
O771       Ni773   1.917   1_545  S
O771       Ni778   1.914       .  S
O772       Ni773   1.959       .  S
Ni773       O777   1.915       .  S
Ni773       O775   1.902       .  S
O774       Ni779   1.939       .  S
C776        O777   1.269       .  A
C776        C870   1.435       .  S
O781       Ni787   1.924       .  S
O781        C802   1.270       .  A
O782       Ni805   1.894       .  S
O782        C791   1.264       .  A
O783       Ni787   1.901       .  S
O783       Ni805   1.891       .  S
O783       Ni799   1.902       .  S
O783        H806   0.966       .  S
C784        O801   1.269       .  A
C784        O793   1.271       .  A
C784        C838   1.424       .  S
O785       Ni804   1.934       .  S
O785        C791   1.271       .  A
O786       Ni804   1.906       .  S
O786        C788   1.269   1_654  A
Ni787       O790   1.916       .  S
Ni787       O792   1.914       .  S
C788        O798   1.279   1_456  A
C788        C956   1.448       .  S
O789       Ni805   1.915       .  S
O789        C795   1.275       .  A
O790        C795   1.275       .  A
C791        C833   1.431       .  S
O792        C794   1.267       .  A
O793       Ni804   1.923   1_556  S
C794        O800   1.273       .  A
C794        C862   1.449       .  S
C795        C967   1.424   1_655  S
H796        O797   0.966       .  S
O797       Ni805   1.916       .  S
O797       Ni799   1.917       .  S
O797       Ni804   1.914       .  S
O798       Ni799   1.960       .  S
Ni799       O803   1.915       .  S
Ni799       O801   1.902   1_554  S
O800       Ni805   1.939       .  S
C802        O803   1.269       .  A
C802        C882   1.435       .  S
O807       Ni813   1.924       .  S
O807        C828   1.270       .  A
O808       Ni831   1.894       .  S
O808        C817   1.264       .  A
O809       Ni813   1.902       .  S
O809       Ni831   1.891   1_565  S
O809       Ni825   1.902       .  S
O809        H832   0.966       .  S
C810        O827   1.269   1_545  A
C810        O819   1.271       .  A
C810        C835   1.424   1_545  S
O811       Ni830   1.934       .  S
O811        C817   1.271       .  A
O812       Ni830   1.906       .  S
O812        C814   1.269   1_655  A
Ni813       O816   1.916       .  S
Ni813       O818   1.914       .  S
C814        O824   1.279   1_445  A
C814        C841   1.448       .  S
O815       Ni831   1.915       .  S
O815        C821   1.275   1_545  A
O816        C821   1.275       .  A
C817        C834   1.431       .  S
O818        C820   1.267       .  A
O819       Ni830   1.923       .  S
C820        O826   1.273   1_565  A
C820        C907   1.449       .  S
C821        C848   1.424   1_655  S
H822        O823   0.966       .  S
O823       Ni831   1.916       .  S
O823       Ni825   1.917   1_545  S
O823       Ni830   1.914       .  S
O824       Ni825   1.960       .  S
Ni825       O829   1.915       .  S
Ni825       O827   1.902       .  S
O826       Ni831   1.939       .  S
C828        O829   1.269       .  A
C828        C890   1.435       .  S
C833        C834   1.203       .  T
C835        C836   1.200       .  T
C837        C838   1.200       .  T
C839        C840   1.203       .  T
C841        C842   1.214       .  T
C843        C844   1.203       .  T
C845        C846   1.200       .  T
C847        C848   1.199   1_546  T
C849        C850   1.214       .  T
C851        C852   1.200       .  T
C853        C854   1.203       .  T
C855        C856   1.214       .  T
C857        C858   1.203       .  T
C859        C860   1.199       .  T
C861        C862   1.214       .  T
C863        C864   1.200       .  T
C865        C866   1.200       .  T
C867        C868   1.203       .  T
C869        C870   1.206       .  T
C871        C872   1.199       .  T
C873        C874   1.214       .  T
C875        C876   1.206       .  T
C877        C878   1.214       .  T
C879        C880   1.203       .  T
C881        C882   1.206       .  T
C883        C884   1.199       .  T
C885        C886   1.214       .  T
C887        C888   1.200       .  T
C889        C890   1.206       .  T
C891        C892   1.214       .  T
C893        C894   1.200       .  T
C895        C896   1.203       .  T
C897        C898   1.206       .  T
C899        C900   1.199   1_554  T
C901        C902   1.214       .  T
C903        C904   1.206       .  T
C905        C906   1.199   1_545  T
C907        C908   1.214       .  T
C909        C910   1.203       .  T
C911        C912   1.206       .  T
C913        C914   1.214       .  T
C915        C916   1.200       .  T
C917        C918   1.206       .  T
C919        C920   1.214       .  T
C921        C922   1.200       .  T
C923        C924   1.203       .  T
C925        C926   1.199   1_565  T
C927        C928   1.214       .  T
C929        C930   1.214       .  T
C931        C932   1.199       .  T
C933        C934   1.214       .  T
C935        C936   1.203       .  T
C937        C938   1.199   1_565  T
C939        C940   1.214       .  T
C941        C942   1.214       .  T
C943        C944   1.200       .  T
C945        C946   1.214       .  T
C947        C948   1.200       .  T
C949        C950   1.203       .  T
C951        C952   1.206       .  T
C953        C954   1.199   1_556  T
C955        C956   1.214       .  T
C957        C958   1.214       .  T
C959        C960   1.206       .  T
C961        C962   1.214       .  T
C963        C964   1.203       .  T
C965        C966   1.206       .  T
C967        C968   1.199       .  T
C969        C970   1.214       .  T
C971        C972   1.214       .  T
C973        C974   1.200       .  T
C975        C976   1.206       .  T
C977        C978   1.199       .  T
C979        C980   1.214       .  T
C981        C982   1.200       .  T
C983        C984   1.203       .  T
C985        C986   1.206       .  T
C987        C988   1.199       .  T
C989        C990   1.214       .  T
C991        C992   1.214       .  T
C993        C994   1.206       .  T
C995        C996   1.199   1_556  T
C997        C998   1.214       .  T
C999       C1000   1.214       .  T
C1001      C1002   1.203       .  T
C1003      C1004   1.206       .  T
C1005      C1006   1.199       .  T
C1007      C1008   1.214       .  T
C1009      C1010   1.214       .  T
C1011      C1012   1.200       .  T
C1013      C1014   1.206       .  T
C1015      C1016   1.199       .  T
C1017      C1018   1.214       .  T
C1019      C1020   1.214       .  T
C1021      C1022   1.200       .  T
C1023      C1024   1.203       .  T
