geometry optimzed in LAMMPS
_audit_creation_date              2020-12-01 
_audit_creation_method            'lammps2cif' 
_symmetry_space_group_name_H-M    'P1' 
_symmetry_Int_Tables_number       1 
_symmetry_cell_setting            triclinic 
loop_ 
_symmetry_equiv_pos_as_xyz 
  x,y,z 
_cell_length_a                    49.94334037 
_cell_length_b                    29.827616626915766 
_cell_length_c                    61.110553978446575 
_cell_angle_alpha                 89.9989840160581 
_cell_angle_beta                  89.98067173287534 
_cell_angle_gamma                 90.25008341273087 
loop_ 
_atom_site_label 
_atom_site_type_symbol 
_atom_site_fract_x 
_atom_site_fract_y 
_atom_site_fract_z 
_atom_site_charge 
O1          O  0.80337480  0.78027763  0.36527372    -0.80500
C2          C  0.85774769  0.90760989  0.41797382     0.98800
O3          O  0.86229625  0.86591515  0.41788295    -0.69700
O4          O  0.81778668  0.82188039  0.42382769    -0.73200
Al5        Al  0.84478246  0.81737845  0.40250944     1.49000
C6          C  0.79311997  0.81519359  0.42144477     0.94100
O7          O  0.77990391  0.89500864  0.38319957    -0.79500
O8          O  0.84150317  0.88170918  0.34397539    -0.73000
Al9        Al  0.79423125  0.83865649  0.37478348     1.90100
O10         O  0.81187190  0.93752192  0.37012163    -0.72100
O11         O  0.87957037  0.87863007  0.37394894    -0.71900
O12         O  0.84696187  0.92656534  0.40180283    -0.77600
O13         O  0.87445684  0.80833361  0.38346290    -0.75800
O14         O  0.82745865  0.85236566  0.38350396    -1.11900
O15         O  0.83037903  0.76141883  0.39196348    -0.71100
C16         C  0.81521336  0.75079508  0.37627048     0.99600
C17         C  0.78829909  0.93276307  0.37711212     0.96000
Al18       Al  0.84359793  0.90179000  0.37332430     1.55600
O19         O  0.78222112  0.81669486  0.40280574    -0.75800
C20         C  0.88879089  0.83951159  0.37589740     1.00100
C21         C  0.82054854  0.86870617  0.33431763     0.95000
O22         O  0.79977192  0.85733741  0.34486896    -0.81100
O23         O  0.80436303  0.22125663  0.62469806    -0.80500
C24         C  0.85929613  0.09939706  0.56957962     0.98800
O25         O  0.86368519  0.14115341  0.57045421    -0.69700
O26         O  0.81835963  0.18313380  0.56559278    -0.73200
Al27       Al  0.84568323  0.18775537  0.58668879     1.49000
C28         C  0.79363382  0.18826437  0.56846268     0.94100
O29         O  0.78171987  0.10614383  0.60583478    -0.79500
O30         O  0.84388489  0.11879196  0.64410131    -0.73000
Al31       Al  0.79579007  0.16266109  0.61468022     1.90100
O32         O  0.81446239  0.06391488  0.61729016    -0.72100
O33         O  0.88134017  0.12605796  0.61389278    -0.71900
O34         O  0.84879078  0.07889627  0.58545999    -0.77600
O35         O  0.87553850  0.19691125  0.60574661    -0.75800
O36         O  0.82896415  0.15081952  0.60532831    -1.11900
O37         O  0.83059599  0.24245203  0.59786989    -0.71100
C38         C  0.81518428  0.25180777  0.61355629     0.99600
C39         C  0.79062157  0.06827502  0.61099409     0.96000
Al40       Al  0.84569261  0.10126677  0.61440093     1.55600
O41         O  0.78313217  0.18520714  0.58719257    -0.75800
C42         C  0.89016612  0.16569332  0.61275459     1.00100
C43         C  0.82309943  0.13080348  0.65420161     0.95000
O44         O  0.80216482  0.14275688  0.64415443    -0.81100
O45         O  0.18874485  0.83729622  0.34238991    -0.80500
C46         C  0.14029536  0.89674558  0.42080941     0.98800
O47         O  0.13716597  0.91423306  0.40221135    -0.69700
O48         O  0.17936133  0.93966829  0.38076083    -0.73200
Al49       Al  0.15078479  0.89979986  0.37381012     1.49000
C50         C  0.20341583  0.93694063  0.37500622     0.94100
O51         O  0.21714441  0.84072556  0.40006982    -0.79500
O52         O  0.15766972  0.76090296  0.38288820    -0.73000
Al53       Al  0.20129934  0.83952065  0.37168619     1.90100
O54         O  0.18648142  0.79943914  0.41643577    -0.72100
O55         O  0.11768620  0.81700889  0.39118802    -0.71900
O56         O  0.14864206  0.85726758  0.42288578    -0.77600
O57         O  0.11905634  0.86851948  0.36570999    -0.75800
O58         O  0.16843654  0.85047856  0.38227737    -1.11900
O59         O  0.16126795  0.89496141  0.34368800    -0.71100
C60         C  0.17425136  0.86601096  0.33297948     0.99600
C61         C  0.20944845  0.81717855  0.41606117     0.96000
Al62       Al  0.15378863  0.81214109  0.40154486     1.55600
O63         O  0.21281420  0.90039147  0.36838892    -0.75800
C64         C  0.10656026  0.83853944  0.37600171     1.00100
C65         C  0.17992101  0.74809785  0.37543289     0.95000
O66         O  0.19868439  0.77567629  0.37239115    -0.81100
O67         O  0.19088482  0.16654168  0.64563776    -0.80500
C68         C  0.14120342  0.10427197  0.56813324     0.98800
O69         O  0.13837948  0.08718964  0.58687978    -0.69700
O70         O  0.18122129  0.06353067  0.60781982    -0.73200
Al71       Al  0.15253688  0.10252063  0.61505910     1.49000
C72         C  0.20547627  0.06730628  0.61286630     0.94100
O73         O  0.21792107  0.16422280  0.58760533    -0.79500
O74         O  0.15777457  0.24106063  0.60540386    -0.73000
Al75       Al  0.20264895  0.16470729  0.61615535     1.90100
O76         O  0.18649827  0.20402564  0.57167252    -0.72100
O77         O  0.11834360  0.18304352  0.59748514    -0.71900
O78         O  0.14945006  0.14386886  0.56573128    -0.77600
O79         O  0.12077734  0.13292984  0.62353226    -0.75800
O80         O  0.16965764  0.15225495  0.60610360    -1.11900
O81         O  0.16363280  0.10819742  0.64503208    -0.71100
C82         C  0.17672855  0.13769441  0.65540818     0.99600
C83         C  0.20971737  0.18765908  0.57181748     0.96000
Al84       Al  0.15426616  0.18958636  0.58686927     1.55600
O85         O  0.21482185  0.10428802  0.61915614    -0.75800
C86         C  0.10773578  0.16177889  0.61305568     1.00100
C87         C  0.17995890  0.25500282  0.61264967     0.95000
O88         O  0.19916321  0.22844088  0.61549428    -0.81100
O89         O  0.30425756  0.28283388  0.36543398    -0.80500
C90         C  0.36140256  0.40591678  0.41854437     0.98800
O91         O  0.36549355  0.36414565  0.41793887    -0.69700
O92         O  0.31995817  0.32336390  0.42411850    -0.73200
Al93       Al  0.34654620  0.31722246  0.40257931     1.49000
C94         C  0.29519145  0.31763138  0.42180454     0.94100
O95         O  0.28285416  0.39844002  0.38404848    -0.79500
O96         O  0.34362434  0.38380653  0.34428669    -0.73000
Al97       Al  0.29619022  0.34159294  0.37526482     1.90100
O98         O  0.31552236  0.43996785  0.37137130    -0.72100
O99         O  0.38202517  0.37692453  0.37394114    -0.71900
O100        O  0.35082967  0.42595124  0.40259350    -0.77600
O101        O  0.37567350  0.30664538  0.38316605    -0.75800
O102        O  0.32970566  0.35351346  0.38382693    -1.11900
O103        O  0.33065834  0.26232016  0.39221555    -0.71100
C104        C  0.31514575  0.25259269  0.37662747     0.99600
C105        C  0.29183866  0.43601462  0.37824010     0.96000
Al106      Al  0.34660008  0.40240742  0.37389368     1.55600
O107        O  0.28418205  0.31964589  0.40322839    -0.75800
C108        C  0.39049435  0.33724193  0.37562773     1.00100
C109        C  0.32227393  0.37222544  0.33475130     0.95000
O110        O  0.30163920  0.36080728  0.34545481    -0.81100
O111        O  0.30450965  0.72469141  0.62157404    -0.80500
C112        C  0.35873869  0.59372233  0.57135308     0.98800
O113        O  0.36319943  0.63543761  0.57062648    -0.69700
O114        O  0.31830647  0.67717904  0.56356905    -0.73200
Al115      Al  0.34525487  0.68473670  0.58476190     1.49000
C116        C  0.29387089  0.68567698  0.56595782     0.94100
O117        O  0.28043195  0.60853721  0.60560242    -0.79500
O118        O  0.34168389  0.62520854  0.64494551    -0.73000
Al119      Al  0.29489866  0.66561161  0.61309061     1.90100
O120        O  0.31235215  0.56713758  0.61935851    -0.72100
O121        O  0.37997078  0.62749785  0.61506063    -0.71900
O122        O  0.34795160  0.57599020  0.58789157    -0.77600
O123        O  0.37466498  0.69655993  0.60361317    -0.75800
O124        O  0.32804096  0.65133961  0.60462800    -1.11900
O125        O  0.33053129  0.74130692  0.59381031    -0.71100
C126        C  0.31576384  0.75326126  0.60949506     0.99600
C127        C  0.28879883  0.57121610  0.61223183     0.96000
Al128      Al  0.34414778  0.60313839  0.61586680     1.55600
O129        O  0.28309665  0.68594844  0.58468128    -0.75800
C130        C  0.38899283  0.66666328  0.61212474     1.00100
C131        C  0.32059667  0.63830935  0.65429543     0.95000
O132        O  0.30003810  0.64892861  0.64337286    -0.81100
O133        O  0.69189506  0.33361803  0.34494814    -0.80500
C134        C  0.63908760  0.39978697  0.42015361     0.98800
O135        O  0.63719304  0.41602286  0.40113863    -0.69700
O136        O  0.68070410  0.43953506  0.38055666    -0.73200
Al137      Al  0.65234461  0.39923511  0.37345654     1.49000
C138        C  0.70501979  0.43597581  0.37569604     0.94100
O139        O  0.71661745  0.34177026  0.40355928    -0.79500
O140        O  0.65752562  0.26179113  0.38504824    -0.73000
Al141      Al  0.70260843  0.33829729  0.37461221     1.90100
O142        O  0.68495592  0.30122658  0.41906212    -0.72100
O143        O  0.61780516  0.31902762  0.39148436    -0.71900
O144        O  0.64743994  0.36058821  0.42327661    -0.77600
O145        O  0.62095243  0.36759946  0.36480007    -0.75800
O146        O  0.66923078  0.35058608  0.38359439    -1.11900
O147        O  0.66450140  0.39142704  0.34383699    -0.71100
C148        C  0.67795107  0.36128264  0.33433006     0.99600
C149        C  0.70791219  0.31893583  0.41944056     0.96000
Al150      Al  0.65325052  0.31396277  0.40291828     1.55600
O151        O  0.71462373  0.39862786  0.37051235    -0.75800
C152        C  0.60766443  0.33913172  0.37543520     1.00100
C153        C  0.68003261  0.24791789  0.37866430     0.95000
O154        O  0.69944665  0.27457132  0.37641485    -0.81100
O155        O  0.68793985  0.66384826  0.64541807    -0.80500
C156        C  0.63836526  0.60596591  0.56697332     0.98800
O157        O  0.63507260  0.58875661  0.58562910    -0.69700
O158        O  0.67737835  0.56201341  0.60679174    -0.73200
Al159      Al  0.64929468  0.60250128  0.61394496     1.49000
C160        C  0.70149698  0.56438567  0.61252819     0.94100
O161        O  0.71649065  0.66154969  0.58779136    -0.79500
O162        O  0.65738352  0.74095260  0.60486217    -0.73000
Al163      Al  0.70044554  0.66205606  0.61611243     1.90100
O164        O  0.68604216  0.70277880  0.57144781    -0.72100
O165        O  0.61719597  0.68530050  0.59633178    -0.71900
O166        O  0.64781647  0.64485962  0.56475554    -0.77600
O167        O  0.61817085  0.63478327  0.62229641    -0.75800
O168        O  0.66753719  0.65147293  0.60544403    -1.11900
O169        O  0.66003603  0.60647943  0.64401946    -0.71100
C170        C  0.67331012  0.63509822  0.65478744     0.99600
C171        C  0.70904351  0.68563117  0.57196049     0.96000
Al172      Al  0.65327773  0.68993896  0.58614525     1.55600
O173        O  0.71133685  0.60087493  0.61904107    -0.75800
C174        C  0.60598105  0.66463365  0.61178875     1.00100
C175        C  0.67960251  0.75359907  0.61254229     0.95000
O176        O  0.69816492  0.72595311  0.61571961    -0.81100
O177        O  0.80396011  0.84000803  0.14465361    -0.80500
C178        C  0.85587930  0.90279297  0.06814114     0.98800
O179        O  0.85763141  0.92030256  0.08688294    -0.69700
O180        O  0.81384057  0.94369755  0.10692270    -0.73200
Al181      Al  0.84245495  0.90504315  0.11476890     1.49000
C182        C  0.78964846  0.93978074  0.11218309     0.94100
O183        O  0.77822477  0.84280192  0.08617972    -0.79500
O184        O  0.83801479  0.76627313  0.10512003    -0.73000
Al185      Al  0.79273000  0.84212788  0.11502998     1.90100
O186        O  0.81024131  0.80333805  0.07075414    -0.72100
O187        O  0.87720819  0.82440704  0.09818206    -0.71900
O188        O  0.84762952  0.86324645  0.06563625    -0.77600
O189        O  0.87388224  0.87496238  0.12399064    -0.75800
O190        O  0.82586146  0.85502934  0.10552432    -1.11900
O191        O  0.83040190  0.89942161  0.14452578    -0.71100
C192        C  0.81754443  0.86927421  0.15467224     0.99600
C193        C  0.78698351  0.81959520  0.07047467     0.96000
Al194      Al  0.84194549  0.81772634  0.08667295     1.55600
O195        O  0.78036107  0.90252069  0.11817973    -0.75800
C196        C  0.88715815  0.84579037  0.11396046     1.00100
C197        C  0.81573547  0.75201670  0.11195643     0.95000
O198        O  0.79629066  0.77830098  0.11427768    -0.81100
O199        O  0.80419809  0.16453414  0.84335509    -0.80500
C200        C  0.85647277  0.10484880  0.91993206     0.98800
O201        O  0.85907072  0.08788553  0.90115154    -0.69700
O202        O  0.81576737  0.06237222  0.88113107    -0.73200
Al203      Al  0.84387714  0.10231829  0.87328308     1.49000
C204        C  0.79140459  0.06522168  0.87635274     0.94100
O205        O  0.77892578  0.16275049  0.90202177    -0.79500
O206        O  0.83833498  0.24064755  0.88258720    -0.73000
Al207      Al  0.79336653  0.16297979  0.87309461     1.90100
O208        O  0.81062598  0.20381215  0.91702997    -0.72100
O209        O  0.87806308  0.18349441  0.89020514    -0.71900
O210        O  0.84784957  0.14408818  0.92247513    -0.77600
O211        O  0.87505894  0.13373786  0.86402939    -0.75800
O212        O  0.82668680  0.15158527  0.88248596    -1.11900
O213        O  0.83181446  0.10707956  0.84363209    -0.71100
C214        C  0.81823330  0.13594872  0.83343071     0.99600
C215        C  0.78746284  0.18694917  0.91748008     0.96000
Al216      Al  0.84243614  0.18955041  0.90131337     1.55600
O217        O  0.78151086  0.10203838  0.87056283    -0.75800
C218        C  0.88831441  0.16258434  0.87442867     1.00100
C219        C  0.81593348  0.25395932  0.87561872     0.95000
O220        O  0.79668529  0.22692251  0.87334466    -0.81100
O221        O  0.18907472  0.78321547  0.12312983    -0.80500
C222        C  0.13350610  0.90769477  0.07007064     0.98800
O223        O  0.12937949  0.86583359  0.07032209    -0.69700
O224        O  0.17462017  0.82420131  0.06419542    -0.73200
Al225      Al  0.14771981  0.81832902  0.08559255     1.49000
C226        C  0.19924467  0.81753930  0.06679220     0.94100
O227        O  0.21187148  0.89842777  0.10458142    -0.79500
O228        O  0.15036213  0.88388348  0.14384191    -0.73000
Al229      Al  0.19790912  0.84178103  0.11333639     1.90100
O230        O  0.17966764  0.94021727  0.11748096    -0.72100
O231        O  0.11257846  0.87857682  0.11390554    -0.71900
O232        O  0.14457183  0.92730195  0.08595596    -0.77600
O233        O  0.11832162  0.80813661  0.10482324    -0.75800
O234        O  0.16468260  0.85423044  0.10450539    -1.11900
O235        O  0.16307371  0.76298182  0.09596823    -0.71100
C236        C  0.17835349  0.75306166  0.11168123     0.99600
C237        C  0.20326737  0.93606608  0.11048738     0.96000
Al238      Al  0.14819474  0.90324519  0.11446139     1.55600
O239        O  0.20998142  0.81947105  0.08548560    -0.75800
C240        C  0.10374438  0.83904805  0.11217456     1.00100
C241        C  0.17140663  0.87202496  0.15358175     0.95000
O242        O  0.19226790  0.86105841  0.14312730    -0.81100
O243        O  0.19224140  0.21653626  0.86609383    -0.80500
C244        C  0.13394160  0.09220658  0.91769617     0.98800
O245        O  0.13004818  0.13405903  0.91730848    -0.69700
O246        O  0.17511120  0.17610778  0.92434395    -0.73200
Al247      Al  0.14896229  0.18149019  0.90233029     1.49000
C248        C  0.19996161  0.18163382  0.92244741     0.94100
O249        O  0.21333023  0.10069253  0.88453698    -0.79500
O250        O  0.15314325  0.11588337  0.84423395    -0.73000
Al251      Al  0.20007020  0.15764860  0.87580639     1.90100
O252        O  0.18115064  0.05919086  0.87111818    -0.72100
O253        O  0.11430379  0.12111143  0.87336360    -0.71900
O254        O  0.14522502  0.07242503  0.90200016    -0.77600
O255        O  0.12020367  0.19148910  0.88249306    -0.75800
O256        O  0.16640823  0.14542562  0.88386248    -1.11900
O257        O  0.16463975  0.23671417  0.89211816    -0.71100
C258        C  0.18059495  0.24662753  0.87684895     0.99600
C259        C  0.20460720  0.06313415  0.87846977     0.96000
Al260      Al  0.14988444  0.09643276  0.87354736     1.55600
O261        O  0.21144485  0.17913089  0.90406093    -0.75800
C262        C  0.10561501  0.16064205  0.87491989     1.00100
C263        C  0.17443436  0.12836340  0.83492382     0.95000
O264        O  0.19507555  0.13915601  0.84578955    -0.81100
O265        O  0.30429909  0.34100131  0.14529514    -0.80500
C266        C  0.35774216  0.39753834  0.06815234     0.98800
O267        O  0.35937470  0.41614777  0.08664205    -0.69700
O268        O  0.31560652  0.44220561  0.10604956    -0.73200
Al269      Al  0.34376167  0.40307027  0.11462669     1.49000
C270        C  0.29141192  0.43957284  0.11151175     0.94100
O271        O  0.27897433  0.34161605  0.08662049    -0.79500
O272        O  0.33754004  0.26367567  0.10672281    -0.73000
Al273      Al  0.29329868  0.34191497  0.11554778     1.90100
O274        O  0.31058609  0.30020826  0.07182084    -0.72100
O275        O  0.37787911  0.32025975  0.09944374    -0.71900
O276        O  0.34897452  0.35819127  0.06614081    -0.77600
O277        O  0.37490994  0.37262416  0.12442027    -0.75800
O278        O  0.32667234  0.35305849  0.10602322    -1.11900
O279        O  0.33130268  0.39970842  0.14440233    -0.71100
C280        C  0.31787188  0.37083729  0.15495385     0.99600
C281        C  0.28748508  0.31712982  0.07127859     0.96000
Al282      Al  0.34244188  0.31413993  0.08775476     1.55600
O283        O  0.28168439  0.40296176  0.11799949    -0.75800
C284        C  0.38808724  0.34267200  0.11481624     1.00100
C285        C  0.31482348  0.25053641  0.11313693     0.95000
O286        O  0.29592289  0.27792746  0.11540200    -0.81100
O287        O  0.30466182  0.66528988  0.84515917    -0.80500
C288        C  0.35783046  0.59729126  0.92004813     0.98800
O289        O  0.35939765  0.58163209  0.90091231    -0.69700
O290        O  0.31544606  0.55894827  0.88069667    -0.73200
Al291      Al  0.34389135  0.59900659  0.87347444     1.49000
C292        C  0.29109960  0.56277109  0.87597055     0.94100
O293        O  0.27960701  0.65734453  0.90379001    -0.79500
O294        O  0.33901829  0.73672947  0.88619937    -0.73000
Al295      Al  0.29388256  0.66052686  0.87488638     1.90100
O296        O  0.31170372  0.69595432  0.91983493    -0.72100
O297        O  0.37867188  0.67868564  0.89170985    -0.71900
O298        O  0.34930714  0.63627013  0.92351472    -0.77600
O299        O  0.37524130  0.63067958  0.86475928    -0.75800
O300        O  0.32718773  0.64768536  0.88390100    -1.11900
O301        O  0.33154451  0.60695080  0.84387735    -0.71100
C302        C  0.31828254  0.63736100  0.83441529     0.99600
C303        C  0.28837900  0.67964034  0.91983151     0.96000
Al304      Al  0.34332898  0.68361131  0.90348409     1.55600
O305        O  0.28161236  0.60023074  0.87077180    -0.75800
C306        C  0.38864695  0.65888012  0.87547477     1.00100
C307        C  0.31658851  0.75080250  0.87972159     0.95000
O308        O  0.29733802  0.72411596  0.87683469    -0.81100
O309        O  0.69143437  0.28322410  0.12258541    -0.80500
C310        C  0.63624397  0.41237174  0.07232807     0.98800
O311        O  0.63123521  0.37077554  0.07231289    -0.69700
O312        O  0.67530411  0.32683818  0.06486683    -0.73200
Al313      Al  0.64892767  0.32173937  0.08678825     1.49000
C314        C  0.70004339  0.32033496  0.06673028     0.94100
O315        O  0.71489124  0.39897822  0.10569664    -0.79500
O316        O  0.65408947  0.38383691  0.14565509    -0.73000
Al317      Al  0.70043253  0.34214809  0.11363980     1.90100
O318        O  0.68355501  0.44086902  0.11978155    -0.72100
O319        O  0.61532675  0.38240822  0.11620693    -0.71900
O320        O  0.64773654  0.43094245  0.08833819    -0.77600
O321        O  0.61974850  0.31219628  0.10643361    -0.75800
O322        O  0.66705781  0.35611590  0.10568953    -1.11900
O323        O  0.66338471  0.26535579  0.09642069    -0.71100
C324        C  0.67923727  0.25413537  0.11150269     0.99600
C325        C  0.70698756  0.43640155  0.11248578     0.96000
Al326      Al  0.65151249  0.40524225  0.11657058     1.55600
O327        O  0.71150954  0.32171434  0.08514853    -0.75800
C328        C  0.60574538  0.34340126  0.11422852     1.00100
C329        C  0.67509365  0.36991270  0.15483647     0.95000
O330        O  0.69561662  0.35915560  0.14386776    -0.81100
O331        O  0.69036365  0.72059424  0.86455590    -0.80500
C332        C  0.63763263  0.59360834  0.91844781     0.98800
O333        O  0.63285753  0.63519229  0.91815324    -0.69700
O334        O  0.67777046  0.67869231  0.92355065    -0.73200
Al335      Al  0.65031864  0.68343598  0.90262567     1.49000
C336        C  0.70228920  0.68626051  0.92063555     0.94100
O337        O  0.71504116  0.60625301  0.88220220    -0.79500
O338        O  0.65223758  0.61793333  0.84432906    -0.73000
Al339      Al  0.70009977  0.66237864  0.87400357     1.90100
O340        O  0.68282195  0.56304094  0.87012957    -0.72100
O341        O  0.61502195  0.62181085  0.87488426    -0.71900
O342        O  0.64846867  0.57443538  0.90237135    -0.77600
O343        O  0.62038853  0.69245763  0.88384434    -0.75800
O344        O  0.66724073  0.64834648  0.88341193    -1.11900
O345        O  0.66476201  0.73939716  0.89214382    -0.71100
C346        C  0.67952164  0.75010951  0.87621383     0.99600
C347        C  0.70668150  0.56828045  0.87637243     0.96000
Al348      Al  0.65101563  0.59860688  0.87375852     1.55600
O349        O  0.71267834  0.68486655  0.90177941    -0.75800
C350        C  0.60590971  0.66108672  0.87661686     1.00100
C351        C  0.67284587  0.63094485  0.83421007     0.95000
O352        O  0.69379141  0.64320956  0.84427703    -0.81100
C353        C  0.62460881  0.52437640  0.97497470     0.18300
C354        C  0.62970015  0.47828201  0.97612428    -0.10800
C355        C  0.62928500  0.45631710  0.99635147    -0.11700
C356        C  0.62379877  0.48031514  0.01554861     0.19900
C357        C  0.61813575  0.52621841  0.01435348    -0.13700
C358        C  0.61854194  0.54819475  0.99411161    -0.12000
C359        C  0.62571394  0.45828246  0.03647215     0.00800
C360        C  0.62940791  0.43841174  0.05339267    -0.32000
C361        C  0.62721395  0.54769906  0.95442438     0.02200
C362        C  0.63106038  0.56806845  0.93764799    -0.33700
H363        H  0.63455953  0.45955374  0.96147067     0.13200
H364        H  0.63383897  0.42086473  0.99708225     0.13100
H365        H  0.61400946  0.54517564  0.02908646     0.12900
H366        H  0.61471413  0.58389322  0.99344198     0.12000
C367        C  0.46907249  0.67425839  0.86563990     0.18300
C368        C  0.48292493  0.70853470  0.87661251    -0.10800
C369        C  0.51099787  0.70900352  0.87696482    -0.11700
C370        C  0.52548179  0.67519074  0.86634616     0.19900
C371        C  0.51163232  0.64152420  0.85492780    -0.13700
C372        C  0.48356076  0.64105140  0.85457856    -0.12000
C373        C  0.55433999  0.67325981  0.86840681     0.00800
C374        C  0.57817637  0.66924731  0.87139098    -0.32000
C375        C  0.44017987  0.67135673  0.86707874     0.02200
C376        C  0.41631814  0.66696017  0.86989440    -0.33700
H377        H  0.47203025  0.73426622  0.88535232     0.13200
H378        H  0.52138148  0.73509732  0.88596111     0.13100
H379        H  0.52251662  0.61502201  0.84674756     0.12900
H380        H  0.47316860  0.61418502  0.84614522     0.12000
C381        C  0.52513403  0.32996002  0.12457211     0.18300
C382        C  0.51068609  0.29559052  0.11419718    -0.10800
C383        C  0.48260592  0.29565927  0.11443670    -0.11700
C384        C  0.46864936  0.33010111  0.12504827     0.19900
C385        C  0.48308849  0.36398506  0.13583323    -0.13700
C386        C  0.51119133  0.36391281  0.13559608    -0.12000
C387        C  0.43970759  0.33225215  0.12353955     0.00800
C388        C  0.41580670  0.33565709  0.12059196    -0.32000
C389        C  0.55406190  0.33192198  0.12268553     0.02200
C390        C  0.57796554  0.33554550  0.11969524    -0.33700
H391        H  0.52111628  0.26927300  0.10549640     0.13200
H392        H  0.47178248  0.26940407  0.10590783     0.13100
H393        H  0.47264071  0.39100382  0.14398980     0.12900
H394        H  0.52202381  0.39086663  0.14358309     0.12000
C395        C  0.37190660  0.46711821  0.01188445     0.18300
C396        C  0.38530719  0.50851300  0.01125709    -0.10800
C397        C  0.38528604  0.53415895  0.99203497    -0.11700
C398        C  0.37187291  0.51851978  0.97335288     0.19900
C399        C  0.35912653  0.47658567  0.97383933    -0.13700
C400        C  0.35914524  0.45099295  0.99302374    -0.12000
C401        C  0.36948751  0.54649932  0.95418305     0.00800
C402        C  0.36525913  0.56974285  0.93837656    -0.32000
C403        C  0.36955564  0.44253603  0.03213815     0.02200
C404        C  0.36531849  0.42205785  0.04884293    -0.33700
H405        H  0.39515164  0.52145008  0.02574802     0.13200
H406        H  0.39511829  0.56660807  0.99191338     0.13100
H407        H  0.34858174  0.46419683  0.95956183     0.12900
H408        H  0.34861085  0.41916113  0.99331273     0.12000
C409        C  0.28595180  0.87580113  0.87638990     0.18300
C410        C  0.26056556  0.87568091  0.86656762    -0.10800
C411        C  0.24433050  0.91382434  0.86750763    -0.11700
C412        C  0.25324840  0.95255313  0.87832454     0.19900
C413        C  0.27867959  0.95279512  0.88811571    -0.13700
C414        C  0.29494512  0.91454915  0.88718719    -0.12000
C415        C  0.23630556  0.99186052  0.87922572     0.00800
C416        C  0.22184981  0.02438983  0.87933089    -0.32000
C417        C  0.30174444  0.83515554  0.87638701     0.02200
C418        C  0.31144872  0.79804739  0.87712963    -0.33700
H419        H  0.25319315  0.84589041  0.85836145     0.13200
H420        H  0.22475421  0.91302855  0.85987518     0.13100
H421        H  0.28587073  0.98243013  0.89654876     0.12900
H422        H  0.31437970  0.91506600  0.89505480     0.12000
C423        C  0.24275608  0.45136750  0.87364266     0.18300
C424        C  0.22040400  0.44591839  0.88732333    -0.10800
C425        C  0.20491670  0.40660461  0.88625421    -0.11700
C426        C  0.21160312  0.37247025  0.87144896     0.19900
C427        C  0.23369158  0.37829090  0.85754482    -0.13700
C428        C  0.24915977  0.41753992  0.85861602    -0.12000
C429        C  0.19721944  0.33019420  0.87162859     0.00800
C430        C  0.18768569  0.29290341  0.87300523    -0.32000
C431        C  0.25944634  0.49107888  0.87519652     0.02200
C432        C  0.27388754  0.52376239  0.87597260    -0.33700
H433        H  0.21517769  0.47174053  0.89901861     0.13200
H434        H  0.18805730  0.40248213  0.89724043     0.13100
H435        H  0.23927105  0.35210766  0.84615303     0.12900
H436        H  0.26634698  0.42122422  0.84793521     0.12000
C437        C  0.23365825  0.22975529  0.97804128     0.18300
C438        C  0.25754335  0.21616531  0.98795851    -0.10800
C439        C  0.26617849  0.23683953  0.00726544    -0.11700
C440        C  0.25098798  0.27118658  0.01675055     0.19900
C441        C  0.22708800  0.28476709  0.00684790    -0.13700
C442        C  0.21844763  0.26407998  0.98753251    -0.12000
C443        C  0.26027572  0.29227491  0.03654935     0.00800
C444        C  0.27083756  0.30652379  0.05287798    -0.32000
C445        C  0.22458778  0.20879719  0.95814006     0.02200
C446        C  0.21490396  0.19401108  0.94156063    -0.33700
H447        H  0.26946208  0.18970317  0.98078104     0.13200
H448        H  0.28471615  0.22609698  0.01479006     0.13100
H449        H  0.21519808  0.31127710  0.01401363     0.12900
H450        H  0.19993230  0.27485471  0.97998523     0.12000
C451        C  0.23455841  0.76669372  0.01266093     0.18300
C452        C  0.23025592  0.72056658  0.00981001    -0.10800
C453        C  0.23871625  0.69938051  0.99060795    -0.11700
C454        C  0.25142187  0.72430483  0.97416921     0.19900
C455        C  0.25577609  0.77040114  0.97705994    -0.13700
C456        C  0.24732464  0.79157043  0.99624858    -0.12000
C457        C  0.26100739  0.70276953  0.95463966     0.00800
C458        C  0.27169571  0.68886625  0.93833732    -0.32000
C459        C  0.22493099  0.78853310  0.03208428     0.02200
C460        C  0.21471949  0.80423885  0.04819125    -0.33700
H461        H  0.22028326  0.70106553  0.02238306     0.13200
H462        H  0.23541641  0.66369165  0.98860669     0.13100
H463        H  0.26575710  0.78992633  0.96449938     0.12900
H464        H  0.25064015  0.82725974  0.99824474     0.12000
C465        C  0.11995000  0.02528028  0.97449521     0.18300
C466        C  0.10491362  0.98579142  0.97692873    -0.10800
C467        C  0.10487948  0.96296198  0.99697046    -0.11700
C468        C  0.11987454  0.97957606  0.01462050     0.19900
C469        C  0.13442095  0.01953441  0.01227447    -0.13700
C470        C  0.13445202  0.04230286  0.99229108    -0.12000
C471        C  0.12193414  0.95437952  0.03465740     0.00800
C472        C  0.12602280  0.93317613  0.05112127    -0.32000
C473        C  0.12189012  0.04734724  0.95358465     0.02200
C474        C  0.12609192  0.06711348  0.93670224    -0.33700
H475        H  0.09371301  0.97220626  0.96325488     0.13200
H476        H  0.09368306  0.93194317  0.99855441     0.13100
H477        H  0.14622313  0.03255368  0.02574512     0.12900
H478        H  0.14624680  0.07267788  0.99057663     0.12000
C479        C  0.24400139  0.55172083  0.11272200     0.18300
C480        C  0.23438903  0.57172601  0.09351754    -0.10800
C481        C  0.21845808  0.61026919  0.09461448    -0.11700
C482        C  0.21189398  0.62922030  0.11493012     0.19900
C483        C  0.22145091  0.60917557  0.13415639    -0.13700
C484        C  0.23739233  0.57058721  0.13305861    -0.12000
C485        C  0.19668228  0.67049753  0.11581032     0.00800
C486        C  0.18620222  0.70703599  0.11505163    -0.32000
C487        C  0.26073766  0.51215407  0.11157050     0.02200
C488        C  0.27476366  0.47909690  0.11103576    -0.33700
H489        H  0.23934354  0.55769867  0.07767847     0.13200
H490        H  0.21148261  0.62556716  0.07959373     0.13100
H491        H  0.21680954  0.62360287  0.14997258     0.12900
H492        H  0.24469808  0.55563931  0.14805560     0.12000
C493        C  0.28455836  0.12422494  0.11526971     0.18300
C494        C  0.28775134  0.09452247  0.09764409    -0.10800
C495        C  0.27172667  0.05585513  0.09608233    -0.11700
C496        C  0.25230372  0.04664705  0.11208392     0.19900
C497        C  0.24924431  0.07621513  0.12973922    -0.13700
C498        C  0.26524715  0.11479212  0.13130367    -0.12000
C499        C  0.23535371  0.00723758  0.11044777     0.00800
C500        C  0.22079538  0.97467020  0.10992393    -0.32000
C501        C  0.29949480  0.16598118  0.11613046     0.02200
C502        C  0.30898929  0.20343189  0.11590219    -0.33700
H503        H  0.30233976  0.10156474  0.08496633     0.13200
H504        H  0.27431570  0.03340078  0.08231552     0.13100
H505        H  0.23431064  0.06965798  0.14221083     0.12900
H506        H  0.26228190  0.13762698  0.14486917     0.12000
C507        C  0.02536149  0.17685410  0.86558518     0.18300
C508        C  0.01119893  0.19907083  0.88213325    -0.10800
C509        C  0.98315370  0.19894721  0.88212399    -0.11700
C510        C  0.96896738  0.17661071  0.86556685     0.19900
C511        C  0.98310855  0.15493784  0.84880985    -0.13700
C512        C  0.01120331  0.15505982  0.84881982    -0.12000
C513        C  0.94005062  0.17392696  0.86658407     0.00800
C514        C  0.91611431  0.17003301  0.86910127    -0.32000
C515        C  0.05424701  0.17408671  0.86671571     0.02200
C516        C  0.07808919  0.16957297  0.86938893    -0.33700
H517        H  0.02183443  0.21573633  0.89529183     0.13200
H518        H  0.97253163  0.21555685  0.89526674     0.13100
H519        H  0.97244207  0.13726063  0.83598862     0.12900
H520        H  0.02185557  0.13743803  0.83601606     0.12000
C521        C  0.73382610  0.27270951  0.01106709     0.18300
C522        C  0.74947693  0.29692465  0.99612863    -0.10800
C523        C  0.75795379  0.27667596  0.97668495    -0.11700
C524        C  0.75076513  0.23216513  0.97204714     0.19900
C525        C  0.73512425  0.20794018  0.98698672    -0.13700
C526        C  0.72664369  0.22819425  0.00643343    -0.12000
C527        C  0.76028026  0.21132838  0.95227227     0.00800
C528        C  0.77083097  0.19727923  0.93591539    -0.32000
C529        C  0.72456541  0.29349143  0.03094152     0.02200
C530        C  0.71484634  0.30811748  0.04752670    -0.33700
H531        H  0.75509112  0.33136691  0.99949294     0.13200
H532        H  0.77017890  0.29565633  0.96530015     0.13100
H533        H  0.72957175  0.17346240  0.98364490     0.12900
H534        H  0.71447643  0.20918346  0.01784554     0.12000
C535        C  0.75674530  0.45956351  0.87365386     0.18300
C536        C  0.77226864  0.44615117  0.89160602    -0.10800
C537        C  0.78785520  0.40720355  0.89041472    -0.11700
C538        C  0.78815943  0.38129973  0.87124618     0.19900
C539        C  0.77297694  0.39512204  0.85316609    -0.13700
C540        C  0.75739155  0.43408098  0.85435582    -0.12000
C541        C  0.80210068  0.33874532  0.87084571     0.00800
C542        C  0.81087857  0.30099209  0.87193642    -0.32000
C543        C  0.73958967  0.49855347  0.87521489     0.02200
C544        C  0.72473751  0.53053239  0.87618051    -0.33700
H545        H  0.77197335  0.46535970  0.90664703     0.13200
H546        H  0.79922146  0.39677071  0.90461530     0.13100
H547        H  0.77273408  0.37528935  0.83831716     0.12900
H548        H  0.74548654  0.44390021  0.84034707     0.12000
C549        C  0.74455377  0.95213319  0.87536130     0.18300
C550        C  0.71652734  0.95503082  0.87461854    -0.10800
C551        C  0.70082706  0.91599424  0.87331539    -0.11700
C552        C  0.71304958  0.87377766  0.87269217     0.19900
C553        C  0.74106964  0.87095247  0.87341596    -0.13700
C554        C  0.75673924  0.90991360  0.87472500    -0.12000
C555        C  0.69718517  0.83307622  0.87206102     0.00800
C556        C  0.68674882  0.79642307  0.87285154    -0.32000
C557        C  0.76083505  0.99231510  0.87650898     0.02200
C558        C  0.77471783  0.02565957  0.87690913    -0.33700
H559        H  0.70682435  0.98742834  0.87507019     0.13200
H560        H  0.67921099  0.91873046  0.87289337     0.13100
H561        H  0.75080998  0.83857083  0.87307457     0.12900
H562        H  0.77835281  0.90710071  0.87526043     0.12000
C563        C  0.02341144  0.82589182  0.12175758     0.18300
C564        C  0.01034389  0.85026514  0.13819722    -0.10800
C565        C  0.98231338  0.85190714  0.13876922    -0.11700
C566        C  0.96720679  0.82919215  0.12289225     0.19900
C567        C  0.98028339  0.80439249  0.10663582    -0.13700
C568        C  0.00827009  0.80276412  0.10606087    -0.12000
C569        C  0.93844910  0.83341626  0.12230945     0.00800
C570        C  0.91465976  0.83820787  0.11975470    -0.32000
C571        C  0.05224440  0.82683209  0.12012153     0.02200
C572        C  0.07611849  0.83030998  0.11737379    -0.33700
H573        H  0.02181211  0.86864788  0.15030558     0.13200
H574        H  0.97246440  0.87152729  0.15130563     0.13100
H575        H  0.96885085  0.78702509  0.09415131     0.12900
H576        H  0.01809988  0.78416982  0.09314394     0.12000
C577        C  0.86760698  0.02855756  0.97451699     0.18300
C578        C  0.86521446  0.98177152  0.97328030    -0.10800
C579        C  0.86538225  0.95594618  0.99241877    -0.11700
C580        C  0.86792952  0.97675740  0.01289187     0.19900
C581        C  0.87068931  0.02346728  0.01408802    -0.13700
C582        C  0.87052233  0.04927459  0.99496279    -0.12000
C583        C  0.86609018  0.95056755  0.03268128     0.00800
C584        C  0.86260750  0.92884239  0.04911565    -0.32000
C585        C  0.86575414  0.05547886  0.95497930     0.02200
C586        C  0.86260700  0.07826271  0.93886691    -0.33700
H587        H  0.86277280  0.96536853  0.95758623     0.13200
H588        H  0.86303517  0.91988966  0.99128130     0.13100
H589        H  0.87247304  0.03998439  0.02981070     0.12900
H590        H  0.87221096  0.08542249  0.99614402     0.12000
C591        C  0.75117385  0.77722273  0.01500953     0.18300
C592        C  0.76308813  0.79023616  0.99521991    -0.10800
C593        C  0.75559453  0.76935137  0.97564862    -0.11700
C594        C  0.73627161  0.73516892  0.97581493     0.19900
C595        C  0.72431193  0.72224525  0.99559847    -0.13700
C596        C  0.73180274  0.74312621  0.01516428    -0.12000
C597        C  0.72770206  0.71477590  0.95564607     0.00800
C598        C  0.71795649  0.69971026  0.93916139    -0.32000
C599        C  0.76019316  0.79671390  0.03525104     0.02200
C600        C  0.77050854  0.80985088  0.05188760    -0.33700
H601        H  0.77829761  0.81624704  0.99495155     0.13200
H602        H  0.76481536  0.77985473  0.96042918     0.13100
H603        H  0.70919137  0.69609057  0.99588543     0.12900
H604        H  0.72266818  0.73247537  0.03039472     0.12000
C605        C  0.74116391  0.05032814  0.11375089     0.18300
C606        C  0.74232844  0.07849907  0.13210964    -0.10800
C607        C  0.72664499  0.11732111  0.13303458    -0.11700
C608        C  0.70957976  0.12828695  0.11563249     0.19900
C609        C  0.70816626  0.09982316  0.09738908    -0.13700
C610        C  0.72385391  0.06098647  0.09646401    -0.12000
C611        C  0.69518220  0.17031354  0.11575256     0.00800
C612        C  0.68573244  0.20755417  0.11472555    -0.32000
C613        C  0.75805027  0.01106246  0.11253442     0.02200
C614        C  0.77244996  0.97853251  0.11193989    -0.33700
H615        H  0.75562048  0.07076600  0.14558826     0.13200
H616        H  0.72818146  0.13917844  0.14714042     0.13100
H617        H  0.69529413  0.10805825  0.08371137     0.12900
H618        H  0.72274202  0.03961179  0.08215908     0.12000
C619        C  0.78927213  0.62361003  0.11634793     0.18300
C620        C  0.77645298  0.60745973  0.13521354    -0.10800
C621        C  0.76078039  0.56835281  0.13429444    -0.11700
C622        C  0.75769882  0.54506884  0.11449179     0.19900
C623        C  0.77099941  0.56067778  0.09574214    -0.13700
C624        C  0.78667346  0.59976787  0.09666261    -0.12000
C625        C  0.74021210  0.50620805  0.11326781     0.00800
C626        C  0.72512339  0.47430381  0.11252926    -0.32000
C627        C  0.80287021  0.66662715  0.11662700     0.02200
C628        C  0.81115920  0.70478193  0.11552314    -0.33700
H629        H  0.77801945  0.62568685  0.15049588     0.13200
H630        H  0.75062825  0.55679022  0.14892812     0.13100
H631        H  0.76882231  0.54315387  0.08031403     0.12900
H632        H  0.79621334  0.61201661  0.08188626     0.12000
C633        C  0.67135953  0.63022435  0.76743449     0.18300
C634        C  0.65267145  0.65651295  0.75620130    -0.10800
C635        C  0.65242877  0.65701442  0.73330500    -0.11700
C636        C  0.67087170  0.63122119  0.72153155     0.19900
C637        C  0.68933930  0.60449410  0.73276717    -0.13700
C638        C  0.68958274  0.60399413  0.75566249    -0.12000
C639        C  0.67122515  0.63283643  0.69797171     0.00800
C640        C  0.67200613  0.63424377  0.67825324    -0.32000
C641        C  0.67205004  0.63061537  0.79099635     0.02200
C642        C  0.67259647  0.63105375  0.81072632    -0.33700
H643        H  0.63845315  0.67685775  0.76513191     0.13200
H644        H  0.63804206  0.67776720  0.72479852     0.13100
H645        H  0.70367565  0.58437672  0.72383924     0.12900
H646        H  0.70408726  0.58347190  0.76417003     0.12000
C647        C  0.67689043  0.35940031  0.26751526     0.18300
C648        C  0.68384128  0.39901172  0.25653183    -0.10800
C649        C  0.68357076  0.40050100  0.23365509    -0.11700
C650        C  0.67634909  0.36238534  0.22159015     0.19900
C651        C  0.66935942  0.32272103  0.23255611    -0.13700
C652        C  0.66963044  0.32122935  0.25547018    -0.12000
C653        C  0.67605865  0.36420979  0.19800895     0.00800
C654        C  0.67577146  0.36660967  0.17829059    -0.32000
C655        C  0.67717648  0.35825384  0.29110305     0.02200
C656        C  0.67754361  0.35892806  0.31084987    -0.33700
H657        H  0.68945774  0.42874399  0.26565411     0.13200
H658        H  0.68898013  0.43136349  0.22537936     0.13100
H659        H  0.66370636  0.29303860  0.22341273     0.12900
H660        H  0.66418532  0.29041471  0.26377091     0.12000
C661        C  0.62729462  0.52847189  0.51277422     0.18300
C662        C  0.64253560  0.48916981  0.51201737    -0.10800
C663        C  0.64257698  0.46261795  0.49315650    -0.11700
C664        C  0.62737777  0.47514776  0.47489991     0.19900
C665        C  0.61174913  0.51404855  0.47575956    -0.13700
C666        C  0.61170888  0.54066027  0.49466090    -0.12000
C667        C  0.62896054  0.44909256  0.45506324     0.00800
C668        C  0.63237404  0.42688753  0.43879063    -0.32000
C669        C  0.62875653  0.55700255  0.53179594     0.02200
C670        C  0.63202301  0.58001858  0.54783352    -0.33700
H671        H  0.65473798  0.47946000  0.52587145     0.13200
H672        H  0.65482058  0.43272892  0.49267522     0.13100
H673        H  0.59998796  0.52417710  0.46172824     0.12900
H674        H  0.59990858  0.57104300  0.49501597     0.12000
C675        C  0.31890245  0.64204252  0.76741462     0.18300
C676        C  0.29475197  0.64403988  0.75575697    -0.10800
C677        C  0.29489025  0.64410695  0.73281658    -0.11700
C678        C  0.31918559  0.64218592  0.72133971     0.19900
C679        C  0.34333743  0.64039235  0.73300597    -0.13700
C680        C  0.34319909  0.64032378  0.75594156    -0.12000
C681        C  0.31936482  0.64156066  0.69766090     0.00800
C682        C  0.31979186  0.64045838  0.67786635    -0.32000
C683        C  0.31873082  0.64115651  0.79107910     0.02200
C684        C  0.31853490  0.63977640  0.81086234    -0.33700
H685        H  0.27582295  0.64533859  0.76439305     0.13200
H686        H  0.27606698  0.64546745  0.72404223     0.13100
H687        H  0.36226335  0.63885846  0.72437583     0.12900
H688        H  0.36201613  0.63872668  0.76471606     0.12000
C689        C  0.52564026  0.68091726  0.62097562     0.18300
C690        C  0.51184912  0.72008490  0.61522330    -0.10800
C691        C  0.48375332  0.72067972  0.61541719    -0.11700
C692        C  0.46929941  0.68211056  0.62136641     0.19900
C693        C  0.48313297  0.64329345  0.62745779    -0.13700
C694        C  0.51114568  0.64269774  0.62726032    -0.12000
C695        C  0.44042005  0.68094922  0.61986480     0.00800
C696        C  0.41657085  0.67626379  0.61726713    -0.32000
C697        C  0.55448871  0.67872951  0.61927394     0.02200
C698        C  0.57831423  0.67380366  0.61670860    -0.33700
H699        H  0.52277280  0.74979985  0.61018712     0.13200
H700        H  0.47333469  0.75082942  0.61050570     0.13100
H701        H  0.47224745  0.61314861  0.63191899     0.12900
H702        H  0.52150057  0.61211338  0.63159440     0.12000
C703        C  0.31807996  0.37539840  0.22186335     0.18300
C704        C  0.29574317  0.36049862  0.23376417    -0.10800
C705        C  0.29634648  0.36023408  0.25668346    -0.11700
C706        C  0.31929031  0.37489142  0.26785403     0.19900
C707        C  0.34149508  0.39030554  0.25595138    -0.13700
C708        C  0.34089219  0.39056890  0.23304054    -0.12000
C709        C  0.32019976  0.37370543  0.29146702     0.00800
C710        C  0.32118429  0.37277321  0.31121959    -0.32000
C711        C  0.31783132  0.37416547  0.19824256     0.02200
C712        C  0.31782443  0.37253695  0.17848587    -0.33700
H713        H  0.27797599  0.34872273  0.22533374     0.13200
H714        H  0.27902512  0.34831173  0.26567472     0.13100
H715        H  0.35933274  0.40180025  0.26437421     0.12900
H716        H  0.35828394  0.40220854  0.22405184     0.12000
C717        C  0.52718368  0.32473492  0.36554276     0.18300
C718        C  0.51332906  0.28518875  0.37088491    -0.10800
C719        C  0.48522964  0.28436201  0.37089117    -0.11700
C720        C  0.47077517  0.32308508  0.36555167     0.19900
C721        C  0.48465999  0.36232823  0.35982238    -0.13700
C722        C  0.51270608  0.36315653  0.35982167    -0.12000
C723        C  0.44187092  0.32379041  0.36732674     0.00800
C724        C  0.41801971  0.32786169  0.37019344    -0.32000
C725        C  0.55607631  0.32691366  0.36720962     0.02200
C726        C  0.57995319  0.33109181  0.36999744    -0.33700
H727        H  0.52422158  0.25530760  0.37548333     0.13200
H728        H  0.47480818  0.25386789  0.37550606     0.13100
H729        H  0.47379819  0.39260125  0.35581598     0.12900
H730        H  0.52309246  0.39404273  0.35580401     0.12000
C731        C  0.37284789  0.47416922  0.47573450     0.18300
C732        C  0.37493505  0.52104818  0.47607366    -0.10800
C733        C  0.37434419  0.54423592  0.49600696    -0.11700
C734        C  0.37165947  0.52075279  0.51577672     0.19900
C735        C  0.37003908  0.47380799  0.51547052    -0.13700
C736        C  0.37063185  0.45060832  0.49552704    -0.12000
C737        C  0.36911774  0.54499788  0.53616263     0.00800
C738        C  0.36538105  0.56643998  0.55267717    -0.32000
C739        C  0.37132571  0.45054026  0.45510805     0.02200
C740        C  0.36806020  0.43058371  0.43808219    -0.33700
H741        H  0.37648311  0.53972462  0.46091749     0.13200
H742        H  0.37546500  0.58051903  0.49597214     0.13100
H743        H  0.36780802  0.45521639  0.53059564     0.12900
H744        H  0.36882821  0.41439755  0.49551811     0.12000
C745        C  0.17491603  0.13316710  0.76813720     0.18300
C746        C  0.16115557  0.10031358  0.75613357    -0.10800
C747        C  0.16105478  0.10186120  0.73323777    -0.11700
C748        C  0.17470003  0.13628580  0.72222621     0.19900
C749        C  0.18832825  0.16926233  0.73423763    -0.13700
C750        C  0.18842934  0.16771475  0.75712629    -0.12000
C751        C  0.17505730  0.13742103  0.69864346     0.00800
C752        C  0.17570494  0.13791424  0.67890197    -0.32000
C753        C  0.17520349  0.13142576  0.79170817     0.02200
C754        C  0.17520936  0.13002825  0.81144344    -0.33700
H755        H  0.15059916  0.07347434  0.76446011     0.13200
H756        H  0.15045708  0.07616134  0.72413557     0.13100
H757        H  0.19895858  0.19602313  0.72591472     0.12900
H758        H  0.19910087  0.19333501  0.76622394     0.12000
C759        C  0.25470550  0.95776524  0.61147724     0.18300
C760        C  0.26484967  0.94147258  0.63133051    -0.10800
C761        C  0.28051447  0.90261078  0.63172160    -0.11700
C762        C  0.28622996  0.87974890  0.61224429     0.19900
C763        C  0.27648733  0.89648382  0.59233014    -0.13700
C764        C  0.26081119  0.93534982  0.59193994    -0.12000
C765        C  0.30028043  0.83746136  0.61278330     0.00800
C766        C  0.30938983  0.79996937  0.61225321    -0.32000
C767        C  0.23746796  0.99663373  0.61130836     0.02200
C768        C  0.22279705  0.02880830  0.61173908    -0.33700
H769        H  0.26028169  0.95840195  0.64655909     0.13200
H770        H  0.28770639  0.88991742  0.64724290     0.13100
H771        H  0.28055183  0.87897880  0.57715750     0.12900
H772        H  0.25310703  0.94747507  0.57647364     0.12000
C773        C  0.20800395  0.38240287  0.61626103     0.18300
C774        C  0.22128217  0.39827118  0.63496023    -0.10800
C775        C  0.23695843  0.43733896  0.63390943    -0.11700
C776        C  0.23958100  0.46084461  0.61413031     0.19900
C777        C  0.22608785  0.44523744  0.59548616    -0.13700
C778        C  0.21041027  0.40617757  0.59653819    -0.12000
C779        C  0.25654414  0.50027798  0.61289269     0.00800
C780        C  0.27111095  0.53281297  0.61221921    -0.32000
C781        C  0.19380874  0.33996129  0.61679922     0.02200
C782        C  0.18489835  0.30218309  0.61595994    -0.33700
H783        H  0.21991100  0.38001697  0.65025090     0.13200
H784        H  0.24731691  0.44887045  0.64844398     0.13100
H785        H  0.22796940  0.46291351  0.58006926     0.12900
H786        H  0.20056213  0.39407570  0.58187719     0.12000
C787        C  0.24581156  0.23097254  0.51690080     0.18300
C788        C  0.27198149  0.22509966  0.50927074    -0.10800
C789        C  0.27998079  0.24511904  0.48962491    -0.11700
C790        C  0.26185086  0.27108115  0.47758655     0.19900
C791        C  0.23569159  0.27694313  0.48522223    -0.13700
C792        C  0.22769725  0.25693694  0.50485493    -0.12000
C793        C  0.27027685  0.29126503  0.45737145     0.00800
C794        C  0.27985079  0.30559429  0.44069121    -0.32000
C795        C  0.23723855  0.21092498  0.53711324     0.02200
C796        C  0.22676900  0.19748818  0.55361431    -0.33700
H797        H  0.28613706  0.20515578  0.51847165     0.13200
H798        H  0.30026944  0.24036774  0.48381364     0.13100
H799        H  0.22152871  0.29689316  0.47602989     0.12900
H800        H  0.20740595  0.26171326  0.51065844     0.12000
C801        C  0.17134526  0.87012280  0.26625845     0.18300
C802        C  0.14935557  0.85312641  0.25462405    -0.10800
C803        C  0.14933080  0.85403169  0.23172483    -0.11700
C804        C  0.17128953  0.87194377  0.22036191     0.19900
C805        C  0.19310984  0.88947928  0.23200398    -0.13700
C806        C  0.19313371  0.88857761  0.25489137    -0.12000
C807        C  0.17157629  0.87185868  0.19679574     0.00800
C808        C  0.17173451  0.87169657  0.17706153    -0.32000
C809        C  0.17182018  0.86802885  0.28980750     0.02200
C810        C  0.17277488  0.86651982  0.30951857    -0.33700
H811        H  0.13237028  0.83887109  0.26323415     0.13200
H812        H  0.13231853  0.84048328  0.22289248     0.13100
H813        H  0.21016405  0.90351205  0.22339698     0.12900
H814        H  0.21021571  0.90190865  0.26371217     0.12000
C815        C  0.26185803  0.73529475  0.51017462     0.18300
C816        C  0.26029174  0.70998382  0.49091437    -0.10800
C817        C  0.25311044  0.73052374  0.47121513    -0.11700
C818        C  0.24757871  0.77653335  0.47062828     0.19900
C819        C  0.24941576  0.80200121  0.48984328    -0.13700
C820        C  0.25662752  0.78144103  0.50956480    -0.12000
C821        C  0.23791851  0.79641274  0.45068117     0.00800
C822        C  0.22682917  0.80884909  0.43426207    -0.32000
C823        C  0.26987443  0.71433053  0.53035647     0.02200
C824        C  0.27892725  0.69887360  0.54700543    -0.33700
H825        H  0.26451941  0.67439132  0.49114204     0.13200
H826        H  0.25150265  0.71041777  0.45650320     0.13100
H827        H  0.24493890  0.83750639  0.48963618     0.12900
H828        H  0.25801819  0.80143500  0.52432634     0.12000
C829        C  0.13245374  0.02631376  0.51372843     0.18300
C830        C  0.14421189  0.98373199  0.51410810    -0.10800
C831        C  0.14416483  0.95698914  0.49528833    -0.11700
C832        C  0.13234611  0.97262300  0.47595413     0.19900
C833        C  0.12051901  0.01515823  0.47557643    -0.13700
C834        C  0.12056797  0.04192617  0.49441226    -0.12000
C835        C  0.13313031  0.94555327  0.45639923     0.00800
C836        C  0.13524668  0.92300799  0.44008296    -0.32000
C837        C  0.13343760  0.05437387  0.53294860    -0.07400
C838        C  0.13583899  0.07746399  0.54906807    -0.33700
H839        H  0.15361655  0.97138082  0.52888826     0.13200
H840        H  0.15352878  0.92430311  0.49576187     0.13100
H841        H  0.11147097  0.02774982  0.46069855     0.12900
H842        H  0.11156275  0.07488475  0.49386109     0.12000
C843        C  0.24345216  0.54661144  0.37584910     0.18300
C844        C  0.25408040  0.58642980  0.36721032    -0.10800
C845        C  0.23803811  0.62465015  0.36529568    -0.11700
C846        C  0.21115353  0.62350321  0.37195660     0.19900
C847        C  0.20043463  0.58359661  0.38046927    -0.13700
C848        C  0.21650581  0.54528491  0.38237294    -0.12000
C849        C  0.19542400  0.66420095  0.37134039     0.00800
C850        C  0.18554643  0.70117936  0.37214747    -0.32000
C851        C  0.26020365  0.50727427  0.37781162     0.02200
C852        C  0.27459334  0.47473429  0.37864521    -0.33700
H853        H  0.27482913  0.58802319  0.36207101     0.13200
H854        H  0.24670975  0.65530423  0.35887603     0.13100
H855        H  0.17978744  0.58224354  0.38587544     0.12900
H856        H  0.20797541  0.51476337  0.38905140     0.12000
C857        C  0.25069516  0.04958767  0.37465454     0.18300
C858        C  0.27842131  0.04797014  0.37833922    -0.10800
C859        C  0.29390545  0.08731775  0.37730283    -0.11700
C860        C  0.28177675  0.12851227  0.37251357     0.19900
C861        C  0.25407242  0.13001390  0.36888049    -0.13700
C862        C  0.23863141  0.09078705  0.36992629    -0.12000
C863        C  0.29721430  0.16970550  0.37216576     0.00800
C864        C  0.30745363  0.20651666  0.37307207    -0.32000
C865        C  0.23453306  0.00922473  0.37547312     0.02200
C866        C  0.22038538  0.97617559  0.37559484    -0.33700
H867        H  0.28804000  0.01637940  0.38202773     0.13200
H868        H  0.31524981  0.08564726  0.38033112     0.13100
H869        H  0.24436466  0.16160944  0.36534616     0.12900
H870        H  0.21725409  0.09260629  0.36705980     0.12000
C871        C  0.82061820  0.13375061  0.76673446     0.18300
C872        C  0.81900303  0.17367982  0.75475333    -0.10800
C873        C  0.81983980  0.17261925  0.73189100    -0.11700
C874        C  0.82230862  0.13162784  0.72090325     0.19900
C875        C  0.82403001  0.09167378  0.73287436    -0.13700
C876        C  0.82319312  0.09273517  0.75575460    -0.12000
C877        C  0.82286479  0.13067311  0.69737241     0.00800
C878        C  0.82308633  0.13053078  0.67765519    -0.32000
C879        C  0.81955411  0.13492041  0.79025961     0.02200
C880        C  0.81875193  0.13581107  0.80996851    -0.33700
H881        H  0.81703278  0.20556786  0.76307641     0.13200
H882        H  0.81849167  0.20370107  0.72278964     0.13100
H883        H  0.82594172  0.05979025  0.72453701     0.12900
H884        H  0.82448261  0.06165584  0.76486321     0.12000
C885        C  0.02706865  0.17546120  0.62318691     0.18300
C886        C  0.01226715  0.13763298  0.62966410    -0.10800
C887        C  0.98419386  0.13881492  0.62986892    -0.11700
C888        C  0.97060850  0.17783466  0.62358769     0.19900
C889        C  0.98541027  0.21602852  0.61766186    -0.13700
C890        C  0.01349691  0.21484733  0.61745870    -0.12000
C891        C  0.94167878  0.17743916  0.62161721     0.00800
C892        C  0.91780487  0.17425658  0.61840257    -0.32000
C893        C  0.05596254  0.17294301  0.62116901     0.02200
C894        C  0.07985028  0.16910345  0.61823344    -0.33700
H895        H  0.02240634  0.10688251  0.63405622     0.13200
H896        H  0.97308376  0.10893236  0.63437755     0.13100
H897        H  0.97524676  0.24635521  0.61265421     0.12900
H898        H  0.02460040  0.24431043  0.61233507     0.12000
C899        C  0.74280437  0.27769022  0.47507455     0.18300
C900        C  0.74650761  0.23117122  0.47577907    -0.10800
C901        C  0.75389188  0.21041527  0.49534039    -0.11700
C902        C  0.75746309  0.23609476  0.51428695     0.19900
C903        C  0.75352876  0.28257750  0.51365355    -0.13700
C904        C  0.74612847  0.30335304  0.49407304    -0.12000
C905        C  0.76698567  0.21536822  0.53397320     0.00800
C906        C  0.77760450  0.20066004  0.55008955    -0.32000
C907        C  0.73415398  0.29828932  0.45507111     0.02200
C908        C  0.72414368  0.31104555  0.43829872    -0.33700
H909        H  0.74367534  0.21098778  0.46121452     0.13200
H910        H  0.75707857  0.17450986  0.49563981     0.13100
H911        H  0.75644449  0.30274228  0.52821291     0.12900
H912        H  0.74300883  0.33927067  0.49374444     0.12000
C913        C  0.74886197  0.45229840  0.61358654     0.18300
C914        C  0.73801060  0.41022458  0.60838028    -0.10800
C915        C  0.75379312  0.37161524  0.60980483    -0.11700
C916        C  0.78062662  0.37455231  0.61647744     0.19900
C917        C  0.79158156  0.41666868  0.62157826    -0.13700
C918        C  0.77575560  0.45537934  0.62015286    -0.12000
C919        C  0.79661162  0.33414923  0.61768664     0.00800
C920        C  0.80727864  0.29774774  0.61712977    -0.32000
C921        C  0.73224120  0.49196363  0.61253395     0.02200
C922        C  0.71807505  0.52482857  0.61212158    -0.33700
H923        H  0.71729970  0.40722214  0.60328983     0.13200
H924        H  0.74504120  0.33939007  0.60571254     0.13100
H925        H  0.81229162  0.41958629  0.62666851     0.12900
H926        H  0.78445167  0.48764042  0.62423992     0.12000
C927        C  0.74230087  0.95691391  0.61267645     0.18300
C928        C  0.75043827  0.92106461  0.62590477    -0.10800
C929        C  0.73456131  0.88237108  0.62757095    -0.11700
C930        C  0.71032733  0.87913059  0.61607120     0.19900
C931        C  0.70211598  0.91503607  0.60288687    -0.13700
C932        C  0.71801228  0.95380480  0.60122659    -0.12000
C933        C  0.69509277  0.83772430  0.61663920     0.00800
C934        C  0.68540176  0.80048803  0.61587026    -0.32000
C935        C  0.75889092  0.99670845  0.61098704     0.02200
C936        C  0.77320293  0.02955882  0.61039616    -0.33700
H937        H  0.76915168  0.92290632  0.63483377     0.13200
H938        H  0.74135740  0.85473576  0.63761338     0.13100
H939        H  0.68361412  0.91285222  0.59369068     0.12900
H940        H  0.71145498  0.98118743  0.59092108     0.12000
C941        C  0.81976082  0.86719783  0.26745572     0.18300
C942        C  0.84126548  0.84912976  0.25568739    -0.10800
C943        C  0.84101235  0.84956776  0.23277400    -0.11700
C944        C  0.81925130  0.86807180  0.22150961     0.19900
C945        C  0.79778348  0.88619492  0.23328251    -0.13700
C946        C  0.79803599  0.88575597  0.25618122    -0.12000
C947        C  0.81885210  0.86833775  0.19791758     0.00800
C948        C  0.81827542  0.86864545  0.17817255    -0.32000
C949        C  0.82001636  0.86700312  0.29105480     0.02200
C950        C  0.82017485  0.86744900  0.31080871    -0.33700
H951        H  0.85819624  0.83474742  0.26421123     0.13200
H952        H  0.85773456  0.83547393  0.22385915     0.13100
H953        H  0.78085664  0.90061139  0.22476637     0.12900
H954        H  0.78131595  0.89988384  0.26508569     0.12000
C955        C  0.02578276  0.82426615  0.36672005     0.18300
C956        C  0.01133905  0.79068743  0.37771768    -0.10800
C957        C  0.98325209  0.79085341  0.37756660    -0.11700
C958        C  0.96931873  0.82459989  0.36641688     0.19900
C959        C  0.98375388  0.85762133  0.35502169    -0.13700
C960        C  0.01184083  0.85745355  0.35517135    -0.12000
C961        C  0.94040844  0.82710885  0.36792330     0.00800
C962        C  0.91652967  0.83134174  0.37064672    -0.32000
C963        C  0.05471821  0.82634842  0.36843808     0.02200
C964        C  0.07865451  0.83035007  0.37111364    -0.33700
H965        H  0.02177557  0.76495962  0.38681972     0.13200
H966        H  0.97241719  0.76526767  0.38656297     0.13100
H967        H  0.97331191  0.88408764  0.34644253     0.12900
H968        H  0.02266987  0.88378138  0.34669451     0.12000
C969        C  0.87114308  0.02912461  0.51305950     0.18300
C970        C  0.87254161  0.05142718  0.49288362    -0.10800
C971        C  0.87228790  0.02696222  0.47330472    -0.11700
C972        C  0.87062399  0.98002906  0.47375908     0.19900
C973        C  0.86977051  0.95770810  0.49394397    -0.13700
C974        C  0.87002739  0.98215990  0.51351278    -0.12000
C975        C  0.86820637  0.95494779  0.45361804     0.00800
C976        C  0.86444121  0.93361862  0.43707158    -0.32000
C977        C  0.86923760  0.05433772  0.53318872     0.02200
C978        C  0.86580897  0.07503689  0.54995825    -0.33700
H979        H  0.87326701  0.08771133  0.49227656     0.13200
H980        H  0.87282516  0.04466762  0.45782961     0.13100
H981        H  0.86834370  0.92147527  0.49454922     0.12900
H982        H  0.86879318  0.96449028  0.52897338     0.12000
C983        C  0.74631537  0.72782218  0.51730401     0.18300
C984        C  0.73582576  0.71167560  0.49753994    -0.10800
C985        C  0.74281206  0.73219430  0.47776159    -0.11700
C986        C  0.76020937  0.76914755  0.47765938     0.19900
C987        C  0.77074275  0.78529445  0.49742368    -0.13700
C988        C  0.76374016  0.76477024  0.51722064    -0.12000
C989        C  0.76843676  0.78888509  0.45722980     0.00800
C990        C  0.77782486  0.80292735  0.44038620    -0.32000
C991        C  0.73748150  0.70855869  0.53766242     0.02200
C992        C  0.72667794  0.69528623  0.55407416    -0.33700
H993        H  0.72207619  0.68347419  0.49744319     0.13200
H994        H  0.73472063  0.71920278  0.46257493     0.13100
H995        H  0.78439096  0.81363161  0.49751571     0.12900
H996        H  0.77171223  0.77788472  0.53242427     0.12000
C997        C  0.70932412  0.12228238  0.37423737     0.18300
C998        C  0.69728251  0.08125278  0.37977402    -0.10800
C999        C  0.71268351  0.04204428  0.38068560    -0.11700
C1000       C  0.74022241  0.04364761  0.37613520     0.19900
C1001       C  0.75217420  0.08465330  0.37051480    -0.13700
C1002       C  0.73681432  0.12374311  0.36959160    -0.12000
C1003       C  0.75635003  0.00352664  0.37719614     0.00800
C1004       C  0.77064730  0.97088540  0.37758072    -0.32000
C1005       C  0.69415915  0.16348460  0.37432830     0.02200
C1006       C  0.68495048  0.20085088  0.37544388    -0.33700
H1007       H  0.67611429  0.07964362  0.38357089     0.13200
H1008       H  0.70316454  0.01058605  0.38505488     0.13100
H1009       H  0.77340612  0.08645804  0.36696204     0.12900
H1010       H  0.74644915  0.15525058  0.36545816     0.12000
C1011       C  0.75404966  0.54635513  0.37283927     0.18300
C1012       C  0.77313104  0.55538810  0.38910310    -0.10800
C1013       C  0.78899212  0.59421343  0.38794040    -0.11700
C1014       C  0.78596283  0.62427526  0.37047243     0.19900
C1015       C  0.76729340  0.61472349  0.35396157    -0.13700
C1016       C  0.75143885  0.57590739  0.35512282    -0.12000
C1017       C  0.80008427  0.66673004  0.37058321     0.00800
C1018       C  0.80913082  0.70428147  0.37216980    -0.32000
C1019       C  0.73675778  0.50744655  0.37452231     0.02200
C1020       C  0.72209863  0.47509161  0.37551010    -0.33700
H1021       H  0.77540960  0.53286189  0.40287969     0.13200
H1022       H  0.80314484  0.60132907  0.40092804     0.13100
H1023       H  0.76453223  0.63781401  0.34047000     0.12900
H1024       H  0.73681082  0.56936895  0.34241796     0.12000
loop_ 
_geom_bond_atom_site_label_1 
_geom_bond_atom_site_label_2 
_geom_bond_distance 
_geom_bond_site_symmetry_2 
_ccdc_geom_bond_type 
O1           C16   1.257       .  A
O1           Al9   1.893       .  S
C2           O12   1.261       .  A
C2            O3   1.265       .  A
C2          C976   1.440       .  S
O3           Al5   1.932       .  S
O4            C6   1.256       .  A
O4           Al5   1.880       .  S
Al5          O13   1.904       .  S
Al5          O15   1.926       .  S
Al5          O14   1.787       .  S
C6           O19   1.263       .  A
C6          C990   1.433       .  S
O7           C17   1.256       .  A
O7           Al9   1.901       .  S
O8           C21   1.261       .  A
O8          Al18   1.894       .  S
Al9          O22   1.931       .  S
Al9          O19   1.928       .  S
Al9          O14   1.789       .  S
O10          C17   1.260       .  A
O10         Al18   1.923       .  S
O11          C20   1.262       .  A
O11         Al18   1.928       .  S
O12         Al18   1.898       .  S
O13          C20   1.259       .  A
O14         Al18   1.789       .  S
O15          C16   1.262       .  A
C16        C1018   1.441       .  S
C17        C1004   1.442       .  S
C20         C962   1.444       .  S
C21          O22   1.266       .  A
C21         C950   1.437       .  S
O23          C38   1.258       .  A
O23         Al31   1.899       .  S
C24          O34   1.260       .  A
C24          O25   1.265       .  A
C24         C978   1.440       .  S
O25         Al27   1.933       .  S
O26          C28   1.257       .  A
O26         Al27   1.882       .  S
Al27         O35   1.911       .  S
Al27         O37   1.925       .  S
Al27         O36   1.789       .  S
C28          O41   1.262       .  A
C28         C906   1.429       .  S
O29          C39   1.256       .  A
O29         Al31   1.902       .  S
O30          C43   1.261       .  A
O30         Al40   1.891       .  S
Al31         O44   1.924       .  S
Al31         O41   1.918       .  S
Al31         O36   1.789       .  S
O32          C39   1.259       .  A
O32         Al40   1.921       .  S
O33          C42   1.262       .  A
O33         Al40   1.925       .  S
O34         Al40   1.897       .  S
O35          C42   1.261       .  A
O36         Al40   1.789       .  S
O37          C38   1.261       .  A
C38         C920   1.444       .  S
C39         C936   1.443       .  S
C42         C892   1.445       .  S
C43          O44   1.265       .  A
C43         C878   1.433       .  S
O45          C60   1.263       .  A
O45         Al53   1.898       .  S
C46          O56   1.257       .  A
C46          O47   1.261       .  A
C46         C836   1.437       .  S
O47         Al49   1.914       .  S
O48          C50   1.255       .  A
O48         Al49   1.902       .  S
Al49         O57   1.901       .  S
Al49         O59   1.919       .  S
Al49         O58   1.795       .  S
C50          O63   1.256       .  A
C50         C866   1.442       .  S
O51          C61   1.262       .  A
O51         Al53   1.907       .  S
O52          C65   1.262       .  A
O52         Al62   1.917       .  S
Al53         O66   1.909       .  S
Al53         O63   1.913       .  S
Al53         O58   1.795       .  S
O54          C61   1.261       .  A
O54         Al62   1.909       .  S
O55          C64   1.259       .  A
O55         Al62   1.917       .  S
O56         Al62   1.892       .  S
O57          C64   1.257       .  A
O58         Al62   1.795       .  S
O59          C60   1.265       .  A
C60         C810   1.436       .  S
C61         C822   1.433       .  S
C64         C964   1.445       .  S
C65          O66   1.258       .  A
C65         C850   1.443       .  S
O67          C82   1.261       .  A
O67         Al75   1.896       .  S
C68          O78   1.258       .  A
C68          O69   1.261       .  A
C68         C838   1.438       .  S
O69         Al71   1.916       .  S
O70          C72   1.255       .  A
O70         Al71   1.901       .  S
Al71         O79   1.902       .  S
Al71         O81   1.921       .  S
Al71         O80   1.794       .  S
C72          O85   1.256       .  A
C72         C768   1.442       .  S
O73          C83   1.261       .  A
O73         Al75   1.904       .  S
O74          C87   1.262       .  A
O74         Al84   1.915       .  S
Al75         O88   1.910       .  S
Al75         O85   1.913       .  S
Al75         O80   1.796       .  S
O76          C83   1.260       .  A
O76         Al84   1.906       .  S
O77          C86   1.259       .  A
O77         Al84   1.917       .  S
O78         Al84   1.893       .  S
O79          C86   1.257       .  A
O80         Al84   1.795       .  S
O81          C82   1.265       .  A
C82         C752   1.437       .  S
C83         C796   1.430       .  S
C86         C894   1.446       .  S
C87          O88   1.259       .  A
C87         C782   1.442       .  S
O89         C104   1.258       .  A
O89         Al97   1.898       .  S
C90         O100   1.261       .  A
C90          O91   1.264       .  A
C90         C740   1.441       .  S
O91         Al93   1.930       .  S
O92          C94   1.256       .  A
O92         Al93   1.879       .  S
Al93        O101   1.904       .  S
Al93        O103   1.924       .  S
Al93        O102   1.789       .  S
C94         O107   1.263       .  A
C94         C794   1.430       .  S
O95         C105   1.257       .  A
O95         Al97   1.902       .  S
O96         C109   1.262       .  A
O96        Al106   1.898       .  S
Al97        O110   1.929       .  S
Al97        O107   1.925       .  S
Al97        O102   1.788       .  S
O98         C105   1.260       .  A
O98        Al106   1.924       .  S
O99         C108   1.263       .  A
O99        Al106   1.929       .  S
O100       Al106   1.901       .  S
O101        C108   1.260       .  A
O102       Al106   1.788       .  S
O103        C104   1.261       .  A
C104        C864   1.442       .  S
C105        C852   1.444       .  S
C108        C724   1.443       .  S
C109        O110   1.266       .  A
C109        C710   1.439       .  S
O111        C126   1.258       .  A
O111       Al119   1.897       .  S
C112        O122   1.260       .  A
C112        O113   1.264       .  A
C112        C738   1.441       .  S
O113       Al115   1.929       .  S
O114        C116   1.256       .  A
O114       Al115   1.881       .  S
Al115       O123   1.899       .  S
Al115       O125   1.925       .  S
Al115       O124   1.788       .  S
C116        O129   1.264       .  A
C116        C824   1.434       .  S
O117        C127   1.258       .  A
O117       Al119   1.902       .  S
O118        C131   1.262       .  A
O118       Al128   1.899       .  S
Al119       O132   1.934       .  S
Al119       O129   1.932       .  S
Al119       O124   1.787       .  S
O120        C127   1.261       .  A
O120       Al128   1.925       .  S
O121        C130   1.263       .  A
O121       Al128   1.929       .  S
O122       Al128   1.901       .  S
O123        C130   1.258       .  A
O124       Al128   1.788       .  S
O125        C126   1.262       .  A
C126        C766   1.440       .  S
C127        C780   1.443       .  S
C130        C696   1.440       .  S
C131        O132   1.266       .  A
C131        C682   1.442       .  S
O133        C148   1.262       .  A
O133       Al141   1.895       .  S
C134        O144   1.258       .  A
C134        O135   1.263       .  A
C134        C668   1.437       .  S
O135       Al137   1.920       .  S
O136        C138   1.255       .  A
O136       Al137   1.904       .  S
Al137       O145   1.902       .  S
Al137       O147   1.923       .  S
Al137       O146   1.792       .  S
C138        O151   1.255       .  A
C138       C1020   1.442       .  S
O139        C149   1.262       .  A
O139       Al141   1.905       .  S
O140        C153   1.261       .  A
O140       Al150   1.914       .  S
Al141       O154   1.910       .  S
Al141       O151   1.911       .  S
Al141       O146   1.794       .  S
O142        C149   1.260       .  A
O142       Al150   1.906       .  S
O143        C152   1.257       .  A
O143       Al150   1.910       .  S
O144       Al150   1.889       .  S
O145        C152   1.256       .  A
O146       Al150   1.793       .  S
O147        C148   1.266       .  A
C148        C656   1.437       .  S
C149        C908   1.429       .  S
C152        C726   1.442       .  S
C153        O154   1.259       .  A
C153       C1006   1.440       .  S
O155        C170   1.261       .  A
O155       Al163   1.897       .  S
C156        O166   1.258       .  A
C156        O157   1.261       .  A
C156        C670   1.437       .  S
O157       Al159   1.914       .  S
O158        C160   1.256       .  A
O158       Al159   1.906       .  S
Al159       O167   1.902       .  S
Al159       O169   1.918       .  S
Al159       O168   1.795       .  S
C160        O173   1.257       .  A
C160        C922   1.445       .  S
O161        C171   1.262       .  A
O161       Al163   1.907       .  S
O162        C175   1.261       .  A
O162       Al172   1.914       .  S
Al163       O176   1.910       .  S
Al163       O173   1.915       .  S
Al163       O168   1.795       .  S
O164        C171   1.260       .  A
O164       Al172   1.904       .  S
O165        C174   1.258       .  A
O165       Al172   1.911       .  S
O166       Al172   1.894       .  S
O167        C174   1.257       .  A
O168       Al172   1.795       .  S
O169        C170   1.264       .  A
C170        C640   1.436       .  S
C171        C992   1.432       .  S
C174        C698   1.441       .  S
C175        O176   1.259       .  A
C175        C934   1.441       .  S
O177        C192   1.262       .  A
O177       Al185   1.897       .  S
C178        O188   1.257       .  A
C178        O179   1.262       .  A
C178        C584   1.437       .  S
O179       Al181   1.919       .  S
O180        C182   1.255       .  A
O180       Al181   1.902       .  S
Al181       O189   1.897       .  S
Al181       O191   1.922       .  S
Al181       O190   1.795       .  S
C182        O195   1.257       .  A
C182        C614   1.443       .  S
O183        C193   1.263       .  A
O183       Al185   1.906       .  S
O184        C197   1.261       .  A
O184       Al194   1.914       .  S
Al185       O198   1.913       .  S
Al185       O195   1.917       .  S
Al185       O190   1.794       .  S
O186        C193   1.261       .  A
O186       Al194   1.906       .  S
O187        C196   1.257       .  A
O187       Al194   1.906       .  S
O188       Al194   1.890       .  S
O189        C196   1.256       .  A
O190       Al194   1.794       .  S
O191        C192   1.265       .  A
C192        C948   1.437       .  S
C193        C600   1.432       .  S
C196        C570   1.437       .  S
C197        O198   1.259       .  A
C197        C628   1.443       .  S
O199        C214   1.261       .  A
O199       Al207   1.897       .  S
C200        O210   1.259       .  A
C200        O201   1.261       .  A
C200        C586   1.437       .  S
O201       Al203   1.914       .  S
O202        C204   1.255       .  A
O202       Al203   1.899       .  S
Al203       O211   1.900       .  S
Al203       O213   1.915       .  S
Al203       O212   1.795       .  S
C204        O217   1.257       .  A
C204        C558   1.442       .  S
O205        C215   1.262       .  A
O205       Al207   1.909       .  S
O206        C219   1.263       .  A
O206       Al216   1.918       .  S
Al207       O220   1.914       .  S
Al207       O217   1.916       .  S
Al207       O212   1.794       .  S
O208        C215   1.260       .  A
O208       Al216   1.906       .  S
O209        C218   1.258       .  A
O209       Al216   1.913       .  S
O210       Al216   1.894       .  S
O211        C218   1.256       .  A
O212       Al216   1.794       .  S
O213        C214   1.263       .  A
C214        C880   1.434       .  S
C215        C528   1.434       .  S
C218        C514   1.442       .  S
C219        O220   1.260       .  A
C219        C542   1.444       .  S
O221        C236   1.257       .  A
O221       Al229   1.897       .  S
C222        O232   1.260       .  A
C222        O223   1.265       .  A
C222        C472   1.436       .  S
O223       Al225   1.931       .  S
O224        C226   1.257       .  A
O224       Al225   1.882       .  S
Al225       O233   1.904       .  S
Al225       O235   1.930       .  S
Al225       O234   1.787       .  S
C226        O239   1.263       .  A
C226        C460   1.431       .  S
O227        C237   1.257       .  A
O227       Al229   1.902       .  S
O228        C241   1.260       .  A
O228       Al238   1.889       .  S
Al229       O242   1.930       .  S
Al229       O239   1.925       .  S
Al229       O234   1.786       .  S
O230        C237   1.260       .  A
O230       Al238   1.925       .  S
O231        C240   1.262       .  A
O231       Al238   1.922       .  S
O232       Al238   1.893       .  S
O233        C240   1.260       .  A
O234       Al238   1.788       .  S
O235        C236   1.263       .  A
C236        C486   1.444       .  S
C237        C500   1.444       .  S
C240        C572   1.438       .  S
C241        O242   1.266       .  A
C241        C808   1.435       .  S
O243        C258   1.257       .  A
O243       Al251   1.896       .  S
C244        O254   1.260       .  A
C244        O245   1.264       .  A
C244        C474   1.435       .  S
O245       Al247   1.929       .  S
O246        C248   1.257       .  A
O246       Al247   1.883       .  S
Al247       O255   1.904       .  S
Al247       O257   1.925       .  S
Al247       O256   1.788       .  S
C248        O261   1.264       .  A
C248        C446   1.434       .  S
O249        C259   1.256       .  A
O249       Al251   1.902       .  S
O250        C263   1.261       .  A
O250       Al260   1.890       .  S
Al251       O264   1.931       .  S
Al251       O261   1.927       .  S
Al251       O256   1.788       .  S
O252        C259   1.260       .  A
O252       Al260   1.926       .  S
O253        C262   1.262       .  A
O253       Al260   1.926       .  S
O254       Al260   1.894       .  S
O255        C262   1.259       .  A
O256       Al260   1.790       .  S
O257        C258   1.261       .  A
C258        C430   1.443       .  S
C259        C416   1.445       .  S
C262        C516   1.442       .  S
C263        O264   1.267       .  A
C263        C754   1.436       .  S
O265        C280   1.263       .  A
O265       Al273   1.899       .  S
C266        O276   1.257       .  A
C266        O267   1.261       .  A
C266        C404   1.438       .  S
O267       Al269   1.919       .  S
O268        C270   1.256       .  A
O268       Al269   1.905       .  S
Al269       O277   1.902       .  S
Al269       O279   1.925       .  S
Al269       O278   1.794       .  S
C270        O283   1.257       .  A
C270        C488   1.446       .  S
O271        C281   1.263       .  A
O271       Al273   1.907       .  S
O272        C285   1.261       .  A
O272       Al282   1.915       .  S
Al273       O286   1.914       .  S
Al273       O283   1.919       .  S
Al273       O278   1.795       .  S
O274        C281   1.262       .  A
O274       Al282   1.910       .  S
O275        C284   1.260       .  A
O275       Al282   1.917       .  S
O276       Al282   1.890       .  S
O277        C284   1.257       .  A
O278       Al282   1.795       .  S
O279        C280   1.266       .  A
C280        C712   1.439       .  S
C281        C444   1.433       .  S
C284        C388   1.445       .  S
C285        O286   1.259       .  A
C285        C502   1.444       .  S
O287        C302   1.262       .  A
O287       Al295   1.900       .  S
C288        O298   1.258       .  A
C288        O289   1.262       .  A
C288        C402   1.439       .  S
O289       Al291   1.919       .  S
O290        C292   1.256       .  A
O290       Al291   1.904       .  S
Al291       O299   1.901       .  S
Al291       O301   1.926       .  S
Al291       O300   1.795       .  S
C292        O305   1.256       .  A
C292        C432   1.444       .  S
O293        C303   1.262       .  A
O293       Al295   1.907       .  S
O294        C307   1.262       .  A
O294       Al304   1.917       .  S
Al295       O308   1.908       .  S
Al295       O305   1.914       .  S
Al295       O300   1.795       .  S
O296        C303   1.261       .  A
O296       Al304   1.906       .  S
O297        C306   1.258       .  A
O297       Al304   1.912       .  S
O298       Al304   1.894       .  S
O299        C306   1.257       .  A
O300       Al304   1.795       .  S
O301        C302   1.265       .  A
C302        C684   1.441       .  S
C303        C458   1.432       .  S
C306        C376   1.443       .  S
C307        O308   1.258       .  A
C307        C418   1.442       .  S
O309        C324   1.256       .  A
O309       Al317   1.893       .  S
C310        O320   1.261       .  A
C310        O311   1.265       .  A
C310        C360   1.436       .  S
O311       Al313   1.927       .  S
O312        C314   1.257       .  A
O312       Al313   1.884       .  S
Al313       O321   1.908       .  S
Al313       O323   1.925       .  S
Al313       O322   1.788       .  S
C314        O327   1.264       .  A
C314        C530   1.435       .  S
O315        C325   1.256       .  A
O315       Al317   1.903       .  S
O316        C329   1.262       .  A
O316       Al326   1.893       .  S
Al317       O330   1.931       .  S
Al317       O327   1.926       .  S
Al317       O322   1.787       .  S
O318        C325   1.260       .  A
O318       Al326   1.927       .  S
O319        C328   1.262       .  A
O319       Al326   1.929       .  S
O320       Al326   1.898       .  S
O321        C328   1.260       .  A
O322       Al326   1.789       .  S
O323        C324   1.261       .  A
C324        C612   1.442       .  S
C325        C626   1.446       .  S
C328        C390   1.445       .  S
C329        O330   1.267       .  A
C329        C654   1.437       .  S
O331        C346   1.257       .  A
O331       Al339   1.895       .  S
C332        O342   1.260       .  A
C332        O333   1.264       .  A
C332        C362   1.436       .  S
O333       Al335   1.929       .  S
O334        C336   1.257       .  A
O334       Al335   1.881       .  S
Al335       O343   1.905       .  S
Al335       O345   1.925       .  S
Al335       O344   1.788       .  S
C336        O349   1.264       .  A
C336        C598   1.433       .  S
O337        C347   1.257       .  A
O337       Al339   1.903       .  S
O338        C351   1.260       .  A
O338       Al348   1.889       .  S
Al339       O352   1.930       .  S
Al339       O349   1.929       .  S
Al339       O344   1.787       .  S
O340        C347   1.260       .  A
O340       Al348   1.927       .  S
O341        C350   1.263       .  A
O341       Al348   1.930       .  S
O342       Al348   1.895       .  S
O343        C350   1.260       .  A
O344       Al348   1.788       .  S
O345        C346   1.261       .  A
C346        C556   1.441       .  S
C347        C544   1.446       .  S
C350        C374   1.443       .  S
C351        O352   1.266       .  A
C351        C642   1.435       .  S
C353        C361   1.441       .  S
C353        C354   1.401       .  A
C353        C358   1.402       .  A
C354        C355   1.399       .  A
C354        H363   1.083       .  S
C355        C356   1.402   1_556  A
C355        H364   1.084       .  S
C356        C359   1.441       .  S
C356        C357   1.401       .  A
C357        C358   1.400   1_554  A
C357        H365   1.083       .  S
C358        H366   1.083       .  S
C359        C360   1.206       .  T
C361        C362   1.207       .  T
C367        C375   1.448       .  S
C367        C368   1.403       .  A
C367        C372   1.403       .  A
C368        C369   1.402       .  A
C368        H377   1.083       .  S
C369        C370   1.403       .  A
C369        H378   1.083       .  S
C370        C373   1.448       .  S
C370        C371   1.403       .  A
C371        C372   1.402       .  A
C371        H379   1.083       .  S
C372        H380   1.083       .  S
C373        C374   1.211       .  T
C375        C376   1.211       .  T
C381        C389   1.450       .  S
C381        C382   1.403       .  A
C381        C386   1.404       .  A
C382        C383   1.402       .  A
C382        H391   1.083       .  S
C383        C384   1.403       .  A
C383        H392   1.083       .  S
C384        C387   1.450       .  S
C384        C385   1.404       .  A
C385        C386   1.404       .  A
C385        H393   1.083       .  S
C386        H394   1.083       .  S
C387        C388   1.212       .  T
C389        C390   1.212       .  T
C395        C403   1.443       .  S
C395        C396   1.402       .  A
C395        C400   1.401   1_554  A
C396        C397   1.402   1_554  A
C396        H405   1.083       .  S
C397        C398   1.403       .  A
C397        H406   1.083       .  S
C398        C401   1.444       .  S
C398        C399   1.401       .  A
C399        C400   1.399       .  A
C399        H407   1.083       .  S
C400        H408   1.084       .  S
C401        C402   1.208       .  T
C403        C404   1.208       .  T
C409        C417   1.449       .  S
C409        C410   1.403       .  A
C409        C414   1.403       .  A
C410        C411   1.401       .  A
C410        H419   1.083       .  S
C411        C412   1.402       .  A
C411        H420   1.084       .  S
C412        C415   1.450       .  S
C412        C413   1.404       .  A
C413        C414   1.404       .  A
C413        H421   1.083       .  S
C414        H422   1.083       .  S
C415        C416   1.212   1_565  T
C417        C418   1.211       .  T
C423        C431   1.449       .  S
C423        C424   1.403       .  A
C423        C428   1.402       .  A
C424        C425   1.403       .  A
C424        H433   1.083       .  S
C425        C426   1.403       .  A
C425        H434   1.083       .  S
C426        C429   1.449       .  S
C426        C427   1.402       .  A
C427        C428   1.401       .  A
C427        H435   1.084       .  S
C428        H436   1.083       .  S
C429        C430   1.211       .  T
C431        C432   1.211       .  T
C437        C445   1.440       .  S
C437        C438   1.400       .  A
C437        C442   1.403       .  A
C438        C439   1.399   1_556  A
C438        H447   1.083       .  S
C439        C440   1.403       .  A
C439        H448   1.084       .  S
C440        C443   1.440       .  S
C440        C441   1.400       .  A
C441        C442   1.399   1_554  A
C441        H449   1.083       .  S
C442        H450   1.084       .  S
C443        C444   1.205       .  T
C445        C446   1.206       .  T
C451        C459   1.438       .  S
C451        C452   1.402       .  A
C451        C456   1.399   1_554  A
C452        C453   1.399   1_554  A
C452        H461   1.083       .  S
C453        C454   1.400       .  A
C453        H462   1.083       .  S
C454        C457   1.438       .  S
C454        C455   1.402       .  A
C455        C456   1.398       .  A
C455        H463   1.084       .  S
C456        H464   1.084       .  S
C457        C458   1.205       .  T
C459        C460   1.204       .  T
C465        C473   1.440       .  S
C465        C466   1.402   1_545  A
C465        C470   1.401       .  A
C466        C467   1.401       .  A
C466        H475   1.083       .  S
C467        C468   1.403   1_556  A
C467        H476   1.083       .  S
C468        C471   1.441       .  S
C468        C469   1.400   1_565  A
C469        C470   1.397   1_554  A
C469        H477   1.084       .  S
C470        H478   1.084       .  S
C471        C472   1.206       .  T
C473        C474   1.206       .  T
C479        C487   1.451       .  S
C479        C480   1.402       .  A
C479        C484   1.404       .  A
C480        C481   1.403       .  A
C480        H489   1.083       .  S
C481        C482   1.403       .  A
C481        H490   1.083       .  S
C482        C485   1.451       .  S
C482        C483   1.403       .  A
C483        C484   1.404       .  A
C483        H491   1.083       .  S
C484        H492   1.083       .  S
C485        C486   1.212       .  T
C487        C488   1.212       .  T
C493        C501   1.450       .  S
C493        C494   1.404       .  A
C493        C498   1.402       .  A
C494        C495   1.404       .  A
C494        H503   1.083       .  S
C495        C496   1.403       .  A
C495        H504   1.083       .  S
C496        C499   1.449       .  S
C496        C497   1.402       .  A
C497        C498   1.401       .  A
C497        H505   1.083       .  S
C498        H506   1.083       .  S
C499        C500   1.211   1_545  T
C501        C502   1.212       .  T
C507        C515   1.447       .  S
C507        C508   1.402       .  A
C507        C512   1.403       .  A
C508        C509   1.401   1_455  A
C508        H517   1.083       .  S
C509        C510   1.402       .  A
C509        H518   1.083       .  S
C510        C513   1.447       .  S
C510        C511   1.403       .  A
C511        C512   1.403   1_655  A
C511        H519   1.083       .  S
C512        H520   1.083       .  S
C513        C514   1.210       .  T
C515        C516   1.210       .  T
C521        C529   1.441       .  S
C521        C522   1.400   1_554  A
C521        C526   1.403       .  A
C522        C523   1.399       .  A
C522        H531   1.083       .  S
C523        C524   1.403       .  A
C523        H532   1.084       .  S
C524        C527   1.440       .  S
C524        C525   1.400       .  A
C525        C526   1.399   1_556  A
C525        H533   1.083       .  S
C526        H534   1.083       .  S
C527        C528   1.206       .  T
C529        C530   1.206       .  T
C535        C543   1.451       .  S
C535        C536   1.403       .  A
C535        C540   1.403       .  A
C536        C537   1.403       .  A
C536        H545   1.083       .  S
C537        C538   1.403       .  A
C537        H546   1.084       .  S
C538        C541   1.451       .  S
C538        C539   1.403       .  A
C539        C540   1.403       .  A
C539        H547   1.083       .  S
C540        H548   1.084       .  S
C541        C542   1.212       .  T
C543        C544   1.212       .  T
C549        C557   1.447       .  S
C549        C550   1.404       .  A
C549        C554   1.402       .  A
C550        C551   1.403       .  A
C550        H559   1.083       .  S
C551        C552   1.402       .  A
C551        H560   1.083       .  S
C552        C555   1.447       .  S
C552        C553   1.403       .  A
C553        C554   1.401       .  A
C553        H561   1.084       .  S
C554        H562   1.084       .  S
C555        C556   1.210       .  T
C557        C558   1.210   1_565  T
C563        C571   1.444       .  S
C563        C564   1.403       .  A
C563        C568   1.401       .  A
C564        C565   1.401   1_455  A
C564        H573   1.083       .  S
C565        C566   1.402       .  A
C565        H574   1.083       .  S
C566        C569   1.443       .  S
C566        C567   1.402       .  A
C567        C568   1.399   1_655  A
C567        H575   1.084       .  S
C568        H576   1.083       .  S
C569        C570   1.207       .  T
C571        C572   1.208       .  T
C577        C585   1.442       .  S
C577        C578   1.402   1_545  A
C577        C582   1.401       .  A
C578        C579   1.400       .  A
C578        H587   1.083       .  S
C579        C580   1.402   1_556  A
C579        H588   1.084       .  S
C580        C583   1.442       .  S
C580        C581   1.401   1_565  A
C581        C582   1.400   1_554  A
C581        H589   1.083       .  S
C582        H590   1.084       .  S
C583        C584   1.207       .  T
C585        C586   1.207       .  T
C591        C599   1.438       .  S
C591        C592   1.402   1_554  A
C591        C596   1.401       .  A
C592        C593   1.399       .  A
C592        H601   1.084       .  S
C593        C594   1.401       .  A
C593        H602   1.083       .  S
C594        C597   1.439       .  S
C594        C595   1.402       .  A
C595        C596   1.399   1_556  A
C595        H603   1.084       .  S
C596        H604   1.083       .  S
C597        C598   1.205       .  T
C599        C600   1.205       .  T
C605        C613   1.448       .  S
C605        C606   1.403       .  A
C605        C610   1.403       .  A
C606        C607   1.402       .  A
C606        H615   1.084       .  S
C607        C608   1.403       .  A
C607        H616   1.083       .  S
C608        C611   1.448       .  S
C608        C609   1.403       .  A
C609        C610   1.402       .  A
C609        H617   1.084       .  S
C610        H618   1.083       .  S
C611        C612   1.210       .  T
C613        C614   1.211   1_545  T
C619        C627   1.449       .  S
C619        C620   1.403       .  A
C619        C624   1.403       .  A
C620        C621   1.403       .  A
C620        H629   1.083       .  S
C621        C622   1.403       .  A
C621        H630   1.083       .  S
C622        C625   1.450       .  S
C622        C623   1.403       .  A
C623        C624   1.403       .  A
C623        H631   1.083       .  S
C624        H632   1.084       .  S
C625        C626   1.212       .  T
C627        C628   1.211       .  T
C633        C641   1.440       .  S
C633        C634   1.401       .  A
C633        C638   1.401       .  A
C634        C635   1.399       .  A
C634        H643   1.083       .  S
C635        C636   1.401       .  A
C635        H644   1.083       .  S
C636        C639   1.441       .  S
C636        C637   1.402       .  A
C637        C638   1.399       .  A
C637        H645   1.083       .  S
C638        H646   1.083       .  S
C639        C640   1.206       .  T
C641        C642   1.206       .  T
C647        C655   1.442       .  S
C647        C648   1.401       .  A
C647        C652   1.402       .  A
C648        C649   1.399       .  A
C648        H657   1.083       .  S
C649        C650   1.401       .  A
C649        H658   1.083       .  S
C650        C653   1.442       .  S
C650        C651   1.402       .  A
C651        C652   1.401       .  A
C651        H659   1.083       .  S
C652        H660   1.083       .  S
C653        C654   1.207       .  T
C655        C656   1.207       .  T
C661        C669   1.442       .  S
C661        C662   1.401       .  A
C661        C666   1.402       .  A
C662        C663   1.398       .  A
C662        H671   1.083       .  S
C663        C664   1.401       .  A
C663        H672   1.084       .  S
C664        C667   1.442       .  S
C664        C665   1.402       .  A
C665        C666   1.402       .  A
C665        H673   1.083       .  S
C666        H674   1.083       .  S
C667        C668   1.207       .  T
C669        C670   1.207       .  T
C675        C683   1.446       .  S
C675        C676   1.403       .  A
C675        C680   1.402       .  A
C676        C677   1.402       .  A
C676        H685   1.083       .  S
C677        C678   1.403       .  A
C677        H686   1.083       .  S
C678        C681   1.447       .  S
C678        C679   1.403       .  A
C679        C680   1.402       .  A
C679        H687   1.083       .  S
C680        H688   1.083       .  S
C681        C682   1.210       .  T
C683        C684   1.210       .  T
C689        C697   1.446       .  S
C689        C690   1.404       .  A
C689        C694   1.401       .  A
C690        C691   1.403       .  A
C690        H699   1.083       .  S
C691        C692   1.403       .  A
C691        H700   1.083       .  S
C692        C695   1.446       .  S
C692        C693   1.401       .  A
C693        C694   1.399       .  A
C693        H701   1.084       .  S
C694        H702   1.084       .  S
C695        C696   1.209       .  T
C697        C698   1.210       .  T
C703        C711   1.444       .  S
C703        C704   1.402       .  A
C703        C708   1.402       .  A
C704        C705   1.401       .  A
C704        H713   1.083       .  S
C705        C706   1.402       .  A
C705        H714   1.083       .  S
C706        C709   1.444       .  S
C706        C707   1.402       .  A
C707        C708   1.400       .  A
C707        H715   1.083       .  S
C708        H716   1.083       .  S
C709        C710   1.208       .  T
C711        C712   1.208       .  T
C717        C725   1.448       .  S
C717        C718   1.403       .  A
C717        C722   1.402       .  A
C718        C719   1.403       .  A
C718        H727   1.083       .  S
C719        C720   1.403       .  A
C719        H728   1.083       .  S
C720        C723   1.448       .  S
C720        C721   1.402       .  A
C721        C722   1.401       .  A
C721        H729   1.083       .  S
C722        H730   1.083       .  S
C723        C724   1.211       .  T
C725        C726   1.211       .  T
C731        C739   1.446       .  S
C731        C732   1.402       .  A
C731        C736   1.403       .  A
C732        C733   1.401       .  A
C732        H741   1.083       .  S
C733        C734   1.403       .  A
C733        H742   1.083       .  S
C734        C737   1.446       .  S
C734        C735   1.402       .  A
C735        C736   1.402       .  A
C735        H743   1.083       .  S
C736        H744   1.083       .  S
C737        C738   1.210       .  T
C739        C740   1.209       .  T
C745        C753   1.441       .  S
C745        C746   1.402       .  A
C745        C750   1.401       .  A
C746        C747   1.400       .  A
C746        H755   1.083       .  S
C747        C748   1.402       .  A
C747        H756   1.083       .  S
C748        C751   1.442       .  S
C748        C749   1.401       .  A
C749        C750   1.400       .  A
C749        H757   1.083       .  S
C750        H758   1.083       .  S
C751        C752   1.207       .  T
C753        C754   1.207       .  T
C759        C767   1.447       .  S
C759        C760   1.403       .  A
C759        C764   1.403       .  A
C760        C761   1.402       .  A
C760        H769   1.084       .  S
C761        C762   1.402       .  A
C761        H770   1.083       .  S
C762        C765   1.446       .  S
C762        C763   1.403       .  A
C763        C764   1.402       .  A
C763        H771   1.084       .  S
C764        H772   1.083       .  S
C765        C766   1.210       .  T
C767        C768   1.210   1_565  T
C773        C781   1.449       .  S
C773        C774   1.403       .  A
C773        C778   1.403       .  A
C774        C775   1.403       .  A
C774        H783   1.083       .  S
C775        C776   1.403       .  A
C775        H784   1.083       .  S
C776        C779   1.449       .  S
C776        C777   1.402       .  A
C777        C778   1.402       .  A
C777        H785   1.083       .  S
C778        H786   1.083       .  S
C779        C780   1.211       .  T
C781        C782   1.211       .  T
C787        C795   1.437       .  S
C787        C788   1.399       .  A
C787        C792   1.402       .  A
C788        C789   1.398       .  A
C788        H797   1.083       .  S
C789        C790   1.403       .  A
C789        H798   1.083       .  S
C790        C793   1.436       .  S
C790        C791   1.399       .  A
C791        C792   1.397       .  A
C791        H799   1.083       .  S
C792        H800   1.084       .  S
C793        C794   1.203       .  T
C795        C796   1.204       .  T
C801        C809   1.441       .  S
C801        C802   1.402       .  A
C801        C806   1.401       .  A
C802        C803   1.400       .  A
C802        H811   1.083       .  S
C803        C804   1.402       .  A
C803        H812   1.083       .  S
C804        C807   1.440       .  S
C804        C805   1.401       .  A
C805        C806   1.399       .  A
C805        H813   1.083       .  S
C806        H814   1.083       .  S
C807        C808   1.206       .  T
C809        C810   1.206       .  T
C815        C823   1.440       .  S
C815        C816   1.400       .  A
C815        C820   1.403       .  A
C816        C817   1.398       .  A
C816        H825   1.083       .  S
C817        C818   1.402       .  A
C817        H826   1.084       .  S
C818        C821   1.440       .  S
C818        C819   1.401       .  A
C819        C820   1.400       .  A
C819        H827   1.083       .  S
C820        H828   1.083       .  S
C821        C822   1.206       .  T
C823        C824   1.206       .  T
C829        C837   1.443       .  S
C829        C830   1.402   1_545  A
C829        C834   1.402       .  A
C830        C831   1.400       .  A
C830        H839   1.083       .  S
C831        C832   1.402       .  A
C831        H840   1.084       .  S
C832        C835   1.443       .  S
C832        C833   1.402   1_565  A
C833        C834   1.401       .  A
C833        H841   1.083       .  S
C834        H842   1.083       .  S
C835        C836   1.208       .  T
C837        C838   1.208       .  T
C843        C851   1.449       .  S
C843        C844   1.402       .  A
C843        C848   1.404       .  A
C844        C845   1.401       .  A
C844        H853   1.084       .  S
C845        C846   1.403       .  A
C845        H854   1.083       .  S
C846        C849   1.449       .  S
C846        C847   1.403       .  A
C847        C848   1.404       .  A
C847        H855   1.083       .  S
C848        H856   1.083       .  S
C849        C850   1.211       .  T
C851        C852   1.211       .  T
C857        C865   1.447       .  S
C857        C858   1.404       .  A
C857        C862   1.401       .  A
C858        C859   1.404       .  A
C858        H867   1.083       .  S
C859        C860   1.403       .  A
C859        H868   1.083       .  S
C860        C863   1.448       .  S
C860        C861   1.402       .  A
C861        C862   1.400       .  A
C861        H869   1.083       .  S
C862        H870   1.084       .  S
C863        C864   1.210       .  T
C865        C866   1.210   1_545  T
C871        C879   1.439       .  S
C871        C872   1.401       .  A
C871        C876   1.402       .  A
C872        C873   1.398       .  A
C872        H881   1.083       .  S
C873        C874   1.401       .  A
C873        H882   1.083       .  S
C874        C877   1.439       .  S
C874        C875   1.401       .  A
C875        C876   1.399       .  A
C875        H883   1.083       .  S
C876        H884   1.083       .  S
C877        C878   1.205       .  T
C879        C880   1.205       .  T
C885        C893   1.451       .  S
C885        C886   1.403       .  A
C885        C890   1.403       .  A
C886        C887   1.403   1_455  A
C886        H895   1.083       .  S
C887        C888   1.403       .  A
C887        H896   1.083       .  S
C888        C891   1.450       .  S
C888        C889   1.403       .  A
C889        C890   1.403   1_655  A
C889        H897   1.083       .  S
C890        H898   1.083       .  S
C891        C892   1.212       .  T
C893        C894   1.212       .  T
C899        C907   1.436       .  S
C899        C900   1.401       .  A
C899        C904   1.400       .  A
C900        C901   1.397       .  A
C900        H909   1.084       .  S
C901        C902   1.399       .  A
C901        H910   1.084       .  S
C902        C905   1.435       .  S
C902        C903   1.402       .  A
C903        C904   1.398       .  A
C903        H911   1.083       .  S
C904        H912   1.083       .  S
C905        C906   1.203       .  T
C907        C908   1.203       .  T
C913        C921   1.450       .  S
C913        C914   1.401       .  A
C913        C918   1.405       .  A
C914        C915   1.401       .  A
C914        H923   1.084       .  S
C915        C916   1.403       .  A
C915        H924   1.083       .  S
C916        C919   1.450       .  S
C916        C917   1.403       .  A
C917        C918   1.405       .  A
C917        H925   1.083       .  S
C918        H926   1.083       .  S
C919        C920   1.212       .  T
C921        C922   1.212       .  T
C927        C935   1.448       .  S
C927        C928   1.402       .  A
C927        C932   1.403       .  A
C928        C929   1.401       .  A
C928        H937   1.084       .  S
C929        C930   1.403       .  A
C929        H938   1.083       .  S
C930        C933   1.448       .  S
C930        C931   1.403       .  A
C931        C932   1.403       .  A
C931        H939   1.083       .  S
C932        H940   1.083       .  S
C933        C934   1.211       .  T
C935        C936   1.211   1_565  T
C941        C949   1.442       .  S
C941        C942   1.402       .  A
C941        C946   1.401       .  A
C942        C943   1.400       .  A
C942        H951   1.083       .  S
C943        C944   1.402       .  A
C943        H952   1.083       .  S
C944        C947   1.442       .  S
C944        C945   1.401       .  A
C945        C946   1.399       .  A
C945        H953   1.083       .  S
C946        H954   1.083       .  S
C947        C948   1.207       .  T
C949        C950   1.207       .  T
C955        C963   1.450       .  S
C955        C956   1.403       .  A
C955        C960   1.403       .  A
C956        C957   1.403   1_455  A
C956        H965   1.083       .  S
C957        C958   1.403       .  A
C957        H966   1.083       .  S
C958        C961   1.449       .  S
C958        C959   1.403       .  A
C959        C960   1.403   1_655  A
C959        H967   1.083       .  S
C960        H968   1.083       .  S
C961        C962   1.211       .  T
C963        C964   1.212       .  T
C969        C977   1.445       .  S
C969        C970   1.403       .  A
C969        C974   1.402   1_545  A
C970        C971   1.401       .  A
C970        H979   1.083       .  S
C971        C972   1.402   1_545  A
C971        H980   1.083       .  S
C972        C975   1.445       .  S
C972        C973   1.402       .  A
C973        C974   1.401       .  A
C973        H981   1.083       .  S
C974        H982   1.083       .  S
C975        C976   1.209       .  T
C977        C978   1.209       .  T
C983        C991   1.439       .  S
C983        C984   1.401       .  A
C983        C988   1.401       .  A
C984        C985   1.398       .  A
C984        H993   1.084       .  S
C985        C986   1.401       .  A
C985        H994   1.083       .  S
C986        C989   1.439       .  S
C986        C987   1.402       .  A
C987        C988   1.399       .  A
C987        H995   1.084       .  S
C988        H996   1.083       .  S
C989        C990   1.205       .  T
C991        C992   1.205       .  T
C997       C1005   1.446       .  S
C997        C998   1.403       .  A
C997       C1002   1.402       .  A
C998        C999   1.404       .  A
C998       H1007   1.083       .  S
C999       C1000   1.404       .  A
C999       H1008   1.083       .  S
C1000      C1003   1.447       .  S
C1000      C1001   1.401       .  A
C1001      C1002   1.400       .  A
C1001      H1009   1.083       .  S
C1002      H1010   1.084       .  S
C1003      C1004   1.210   1_545  T
C1005      C1006   1.209       .  T
C1011      C1019   1.447       .  S
C1011      C1012   1.403       .  A
C1011      C1016   1.403       .  A
C1012      C1013   1.402       .  A
C1012      H1021   1.083       .  S
C1013      C1014   1.403       .  A
C1013      H1022   1.083       .  S
C1014      C1017   1.447       .  S
C1014      C1015   1.402       .  A
C1015      C1016   1.402       .  A
C1015      H1023   1.084       .  S
C1016      H1024   1.083       .  S
C1017      C1018   1.210       .  T
C1019      C1020   1.210       .  T
