geometry optimzed in LAMMPS
_audit_creation_date              2020-11-30 
_audit_creation_method            'lammps2cif' 
_symmetry_space_group_name_H-M    'P1' 
_symmetry_Int_Tables_number       1 
_symmetry_cell_setting            triclinic 
loop_ 
_symmetry_equiv_pos_as_xyz 
  x,y,z 
_cell_length_a                    29.370167611768807 
_cell_length_b                    45.79990063445795 
_cell_length_c                    28.323676094177596 
_cell_angle_alpha                 90.0007563524463 
_cell_angle_beta                  111.91076472324363 
_cell_angle_gamma                 90.00026277090949 
loop_ 
_atom_site_label 
_atom_site_type_symbol 
_atom_site_fract_x 
_atom_site_fract_y 
_atom_site_fract_z 
_atom_site_charge 
Fe1        Fe  0.29341229  0.42445497  0.14186361     1.65780
Fe2        Fe  0.37059824  0.43371681  0.07882846     1.73250
Fe3        Fe  0.34640521  0.36541390  0.11405312     1.54420
O4          O  0.36499369  0.36250515  0.19090989    -0.83050
O5          O  0.36954884  0.40480054  0.02712639    -0.81350
O6          O  0.33558145  0.40393737  0.21339948    -0.85550
O7          O  0.25033158  0.38986366  0.13318657    -0.80410
O8          O  0.41782915  0.37163508  0.12125940    -0.82180
O9          O  0.30138201  0.44808499  0.02786720    -0.84930
C10         C  0.24598666  0.36335702  0.12213760     0.95840
C11         C  0.35547850  0.37794655  0.22335057     1.03280
O12         O  0.33855873  0.40792511  0.11391668    -1.13910
O13         O  0.38264350  0.46757604  0.12833685    -0.76340
O14         O  0.32418356  0.46600974  0.15941694    -0.79830
O15         O  0.27617789  0.35060701  0.10683507    -0.80520
C16         C  0.35623727  0.47984109  0.14859655     0.94740
O17         O  0.24823341  0.43861384  0.06593092    -0.78470
O18         O  0.44084195  0.41791343  0.11874557    -0.83670
C19         C  0.35336146  0.37954230  0.01653075     0.97360
C20         C  0.44948141  0.39055401  0.12097648     1.03280
O21         O  0.32777148  0.36641132  0.03756638    -0.79310
C22         C  0.25733718  0.44495621  0.02568606     1.01580
Fe23       Fe  0.17951738  0.42448520  0.35690097     1.65780
Fe24       Fe  0.10234785  0.43374251  0.41995261     1.73250
Fe25       Fe  0.12657453  0.36544129  0.38475479     1.54410
O26         O  0.10799138  0.36252543  0.30789110    -0.83050
O27         O  0.10344981  0.40484807  0.47170699    -0.81350
O28         O  0.13730072  0.40398528  0.28536233    -0.85550
O29         O  0.22259148  0.38989383  0.36549487    -0.80410
O30         O  0.05513891  0.37163445  0.37752958    -0.82180
O31         O  0.17157134  0.44814339  0.47087638    -0.84930
C32         C  0.22697610  0.36339962  0.37662747     0.95840
C33         C  0.11744473  0.37798179  0.27542705     1.03280
O34         O  0.13439197  0.40795027  0.38487207    -1.13910
O35         O  0.09020726  0.46756432  0.37035652    -0.76440
O36         O  0.14879164  0.46605952  0.33945590    -0.79830
O37         O  0.19682567  0.35066522  0.39200850    -0.80520
C38         C  0.11669616  0.47986866  0.35024186     0.94740
O39         O  0.22471986  0.43860518  0.43283878    -0.78470
O40         O  0.03211954  0.41790868  0.38008284    -0.83670
C41         C  0.11962597  0.37958695  0.48229134     0.97360
C42         C  0.02348358  0.39054902  0.37781818     1.03280
O43         O  0.14519988  0.36645162  0.46124118    -0.79310
C44         C  0.21561588  0.44496846  0.47307481     1.01580
Fe45       Fe  0.42865456  0.31712884  0.35666160     1.65780
Fe46       Fe  0.35273997  0.30933868  0.42198471     1.73250
Fe47       Fe  0.37524247  0.37678758  0.38276591     1.54410
O48         O  0.44553892  0.39119190  0.38959608    -0.83050
O49         O  0.28201039  0.32317741  0.37869686    -0.81350
O50         O  0.47447845  0.35078493  0.36962662    -0.85550
O51         O  0.38923906  0.33877402  0.28525916    -0.80410
O52         O  0.39323680  0.37747028  0.45927723    -0.82180
O53         O  0.34678164  0.27285652  0.37992166    -0.84930
C54         C  0.36815609  0.36435105  0.27460236     0.95840
C55         C  0.47771650  0.37763020  0.37832678     1.03280
O56         O  0.38390780  0.33424167  0.38471172    -1.13910
O57         O  0.42182015  0.29768720  0.47461165    -0.76340
O58         O  0.47244567  0.30107998  0.43183649    -0.79830
O59         O  0.35674131  0.37926885  0.30621286    -0.80520
C60         C  0.46494642  0.29761433  0.47383417     0.94740
O61         O  0.39376687  0.27690902  0.33485731    -0.78470
O62         O  0.34993610  0.33992619  0.46924343    -0.83670
C63         C  0.27255526  0.35052477  0.37550378     0.97360
C64         C  0.36657476  0.36504009  0.47973624     1.03280
O65         O  0.30379367  0.36973415  0.37500594    -0.79310
C66         C  0.36706455  0.26199560  0.35197707     1.01580
Fe67       Fe  0.04427159  0.31713950  0.14207616     1.65780
Fe68       Fe  0.12019266  0.30935120  0.07675879     1.73250
Fe69       Fe  0.09776326  0.37679281  0.11606285     1.54410
O70         O  0.02749943  0.39122140  0.10933184    -0.83050
O71         O  0.19094138  0.32313776  0.12011285    -0.81350
O72         O  0.99838370  0.35076753  0.12893599    -0.85550
O73         O  0.08358417  0.33883751  0.21347180    -0.80410
O74         O  0.07973616  0.37749557  0.03954125    -0.82180
O75         O  0.12598472  0.27283256  0.11870386    -0.84930
C76         C  0.10477173  0.36438335  0.22417409     0.95840
C77         C  0.99523505  0.37763378  0.12042243     1.03280
O78         O  0.08904527  0.33424985  0.11406229    -1.13910
O79         O  0.05112381  0.29776533  0.02408637    -0.76340
O80         O  0.00053267  0.30101811  0.06691426    -0.79830
O81         O  0.11631847  0.37926142  0.19261433    -0.80520
C82         C  0.00801280  0.29761826  0.02489157     0.94740
O83         O  0.07927872  0.27696965  0.16405626    -0.78470
O84         O  0.12307992  0.33997044  0.02958316    -0.83670
C85         C  0.20041464  0.35048430  0.12328856     0.97370
C86         C  0.10641814  0.36508002  0.01908721     1.03280
O87         O  0.16918652  0.36970246  0.12377764    -0.79310
C88         C  0.10585755  0.26201886  0.14683090     1.01580
Fe89       Fe  0.29429438  0.06712834  0.14223324     1.65780
Fe90       Fe  0.37020889  0.05933746  0.07690977     1.73250
Fe91       Fe  0.34770854  0.12678653  0.11613150     1.54420
O92         O  0.27741243  0.14119089  0.10930235    -0.83050
O93         O  0.44093905  0.07317578  0.12019944    -0.81350
O94         O  0.24846998  0.10078377  0.12926724    -0.85550
O95         O  0.33370941  0.08877465  0.21363624    -0.80410
O96         O  0.32971363  0.12746815  0.03961995    -0.82180
O97         O  0.37616312  0.02285467  0.11896932    -0.84930
C98         C  0.35479444  0.11435135  0.22429454     0.95840
C99         C  0.24523339  0.12762911  0.12056927     1.03280
O100        O  0.33904201  0.08424072  0.11418417    -1.13910
O101        O  0.30112838  0.04768730  0.02428147    -0.76340
O102        O  0.25050351  0.05107850  0.06705764    -0.79830
O103        O  0.36621052  0.12926864  0.19268485    -0.80520
C104        C  0.25800230  0.04761412  0.02505929     0.94740
O105        O  0.32918311  0.02690950  0.16403898    -0.78470
O106        O  0.37301573  0.08992499  0.02965341    -0.83670
C107        C  0.45039511  0.10052321  0.12339350     0.97370
C108        C  0.35637613  0.11503841  0.01916075     1.03280
O109        O  0.41915706  0.11973271  0.12389122    -0.79310
C110        C  0.35588372  0.01199521  0.14691807     1.01580
Fe111      Fe  0.17867729  0.06714026  0.35681816     1.65780
Fe112      Fe  0.10275645  0.05935300  0.42213556     1.73250
Fe113      Fe  0.12518867  0.12679437  0.38283473     1.54420
O114        O  0.19545340  0.14122244  0.38956805    -0.83050
O115        O  0.03200862  0.07314002  0.37878308    -0.81350
O116        O  0.22456441  0.10076905  0.36995599    -0.85550
O117        O  0.13936349  0.08883675  0.28542284    -0.80410
O118        O  0.14321429  0.12749837  0.45935598    -0.82180
O119        O  0.09696022  0.02283480  0.38018728    -0.84930
C120        C  0.11817900  0.11438324  0.27472244     0.95840
C121        C  0.22771554  0.12763501  0.37847358     1.03280
O122        O  0.13390494  0.08425125  0.38483351    -1.13910
O123        O  0.17182486  0.04776581  0.47480661    -0.76340
O124        O  0.22241673  0.05102040  0.43197976    -0.79830
O125        O  0.10663510  0.12926224  0.30628361    -0.80520
C126        C  0.21493606  0.04761921  0.47400177     0.94740
O127        O  0.14367177  0.02696911  0.33484049    -0.78470
O128        O  0.09987190  0.08997231  0.46931346    -0.83670
C129        C  0.02253637  0.10048650  0.37560828     0.97370
C130        C  0.11653239  0.11508244  0.47980944     1.03280
O131        O  0.05376481  0.11970455  0.37511886    -0.79310
C132        C  0.11709103  0.01201936  0.35206470     1.01580
Fe133      Fe  0.42953990  0.17445630  0.35703751     1.65780
Fe134      Fe  0.35235447  0.18371623  0.42007427     1.73250
Fe135      Fe  0.37654506  0.11541434  0.38484322     1.54420
O136        O  0.35795529  0.11250600  0.30798636    -0.83050
O137        O  0.35339989  0.15479839  0.47177108    -0.81350
O138        O  0.38737269  0.15393715  0.28550058    -0.85550
O139        O  0.47262237  0.13986621  0.36571677    -0.80410
O140        O  0.30512147  0.12163573  0.37763777    -0.82180
O141        O  0.42157053  0.19808236  0.47103854    -0.84930
C142        C  0.47696507  0.11335908  0.37676076     0.95840
C143        C  0.36747283  0.12794689  0.27554723     1.03280
O144        O  0.38439308  0.15792564  0.38498309    -1.13910
O145        O  0.34031473  0.21757807  0.37057443    -0.76340
O146        O  0.39876490  0.21600944  0.33948035    -0.79830
O147        O  0.44677155  0.10060790  0.39205855    -0.80520
C148        C  0.36671431  0.22984136  0.35030504     0.94740
O149        O  0.47471827  0.18861722  0.43297114    -0.78470
O150        O  0.28211036  0.16791431  0.38015246    -0.83670
C151        C  0.36958889  0.12954081  0.48236645     0.97370
C152        C  0.27346974  0.14055491  0.37792047     1.03280
O153        O  0.39517960  0.11641076  0.46133042    -0.79310
C154        C  0.46561509  0.19495670  0.47321779     1.01580
Fe155      Fe  0.04343430  0.17448420  0.14200012     1.65780
Fe156      Fe  0.12060448  0.18374363  0.07895051     1.73250
Fe157      Fe  0.09637445  0.11544122  0.11414052     1.54420
O158        O  0.11495631  0.11252463  0.19100418    -0.83050
O159        O  0.11949763  0.15485122  0.02718971    -0.81350
O160        O  0.08565343  0.15398580  0.21353755    -0.85550
O161        O  0.00036207  0.13989173  0.13340918    -0.80410
O162        O  0.16781060  0.12163382  0.12136667    -0.82180
O163        O  0.05138106  0.19814737  0.02803028    -0.84930
C164        C  0.99597482  0.11339814  0.12227094     0.95840
C165        C  0.10550620  0.12798162  0.22347022     1.03280
O166        O  0.08855908  0.15795009  0.11402738    -1.13910
O167        O  0.13275193  0.21756196  0.12855710    -0.76340
O168        O  0.07415592  0.21606012  0.15944095    -0.79830
O169        O  0.02612226  0.10066506  0.10688397    -0.80520
C170        C  0.10625553  0.22986839  0.14866064     0.94740
O171        O  0.99823120  0.18860198  0.06606310    -0.78470
O172        O  0.19083201  0.16790779  0.11881486    -0.83670
C173        C  0.10332324  0.12958939  0.01660502     0.97370
C174        C  0.19946662  0.14054812  0.12107823     1.03280
O175        O  0.07774990  0.11645307  0.03765457    -0.79310
C176        C  0.00733613  0.19496870  0.02582925     1.01580
Fe177      Fe  0.29341229  0.42445498  0.64186362     1.65780
Fe178      Fe  0.37059823  0.43371681  0.57882845     1.73250
Fe179      Fe  0.34640518  0.36541390  0.61405311     1.54420
O180        O  0.36499366  0.36250516  0.69090988    -0.83050
O181        O  0.36954883  0.40480055  0.52712638    -0.81350
O182        O  0.33558144  0.40393738  0.71339948    -0.85550
O183        O  0.25033157  0.38986367  0.63318658    -0.80410
O184        O  0.41782913  0.37163509  0.62125940    -0.82180
O185        O  0.30138200  0.44808499  0.52786719    -0.84930
C186        C  0.24598664  0.36335703  0.62213760     0.95840
C187        C  0.35547849  0.37794656  0.72335056     1.03280
O188        O  0.33855872  0.40792511  0.61391668    -1.13910
O189        O  0.38264349  0.46757604  0.62833684    -0.76340
O190        O  0.32418355  0.46600975  0.65941694    -0.79830
O191        O  0.27617786  0.35060703  0.60683505    -0.80520
C192        C  0.35623726  0.47984110  0.64859655     0.94740
O193        O  0.24823340  0.43861385  0.56593092    -0.78470
O194        O  0.44084194  0.41791343  0.61874557    -0.83670
C195        C  0.35336144  0.37954231  0.51653074     0.97360
C196        C  0.44948139  0.39055401  0.62097648     1.03280
O197        O  0.32777146  0.36641133  0.53756637    -0.79310
C198        C  0.25733717  0.44495621  0.52568606     1.01580
Fe199      Fe  0.17951739  0.42448521  0.85690097     1.65780
Fe200      Fe  0.10234786  0.43374252  0.91995261     1.73250
Fe201      Fe  0.12657456  0.36544130  0.88475480     1.54410
O202        O  0.10799142  0.36252544  0.80789112    -0.83050
O203        O  0.10344982  0.40484809  0.97170700    -0.81350
O204        O  0.13730072  0.40398529  0.78536233    -0.85550
O205        O  0.22259149  0.38989384  0.86549486    -0.80410
O206        O  0.05513893  0.37163446  0.87752958    -0.82180
O207        O  0.17157135  0.44814340  0.97087638    -0.84930
C208        C  0.22697612  0.36339963  0.87662748     0.95840
C209        C  0.11744474  0.37798179  0.77542707     1.03280
O210        O  0.13439199  0.40795028  0.88487208    -1.13910
O211        O  0.09020726  0.46756432  0.87035651    -0.76440
O212        O  0.14879165  0.46605953  0.83945591    -0.79830
O213        O  0.19682570  0.35066524  0.89200853    -0.80520
C214        C  0.11669617  0.47986867  0.85024186     0.94740
O215        O  0.22471987  0.43860518  0.93283878    -0.78470
O216        O  0.03211955  0.41790869  0.88008284    -0.83670
C217        C  0.11962599  0.37958697  0.98229136     0.97360
C218        C  0.02348359  0.39054902  0.87781818     1.03280
O219        O  0.14519990  0.36645164  0.96124119    -0.79310
C220        C  0.21561589  0.44496846  0.97307481     1.01580
Fe221      Fe  0.42865456  0.31712885  0.85666158     1.65780
Fe222      Fe  0.35273997  0.30933867  0.92198470     1.73250
Fe223      Fe  0.37524249  0.37678758  0.88276592     1.54410
O224        O  0.44553895  0.39119189  0.88959611    -0.83050
O225        O  0.28201040  0.32317742  0.87869687    -0.81350
O226        O  0.47447843  0.35078494  0.86962655    -0.85550
O227        O  0.38923903  0.33877401  0.78525913    -0.80410
O228        O  0.39323682  0.37747027  0.95927725    -0.82180
O229        O  0.34678160  0.27285653  0.87992161    -0.84930
C230        C  0.36815608  0.36435105  0.77460235     0.95840
C231        C  0.47771651  0.37763020  0.87832677     1.03280
O232        O  0.38390781  0.33424167  0.88471171    -1.13910
O233        O  0.42182016  0.29768718  0.97461162    -0.76340
O234        O  0.47244568  0.30108000  0.93183646    -0.79830
O235        O  0.35674134  0.37926886  0.80621287    -0.80520
C236        C  0.46494643  0.29761433  0.97383414     0.94740
O237        O  0.39376689  0.27690901  0.83485732    -0.78470
O238        O  0.34993614  0.33992618  0.96924344    -0.83670
C239        C  0.27255527  0.35052478  0.87550379     0.97360
C240        C  0.36657478  0.36504008  0.97973625     1.03280
O241        O  0.30379369  0.36973415  0.87500594    -0.79310
C242        C  0.36706453  0.26199559  0.85197705     1.01580
Fe243      Fe  0.04427161  0.31713950  0.64207620     1.65780
Fe244      Fe  0.12019266  0.30935120  0.57675881     1.73250
Fe245      Fe  0.09776323  0.37679282  0.61606284     1.54410
O246        O  0.02749939  0.39122139  0.60933180    -0.83050
O247        O  0.19094137  0.32313777  0.62011285    -0.81350
O248        O  0.99838373  0.35076754  0.62893608    -0.85550
O249        O  0.08358422  0.33883750  0.71347183    -0.80410
O250        O  0.07973614  0.37749556  0.53954124    -0.82180
O251        O  0.12598477  0.27283257  0.61870392    -0.84930
C252        C  0.10477174  0.36438335  0.72417410     0.95840
C253        C  0.99523504  0.37763378  0.62042245     1.03280
O254        O  0.08904526  0.33424985  0.61406230    -1.13910
O255        O  0.05112380  0.29776531  0.52408642    -0.76340
O256        O  0.00053266  0.30101813  0.56691429    -0.79830
O257        O  0.11631843  0.37926143  0.69261432    -0.80520
C258        C  0.00801279  0.29761826  0.52489161     0.94740
O259        O  0.07927870  0.27696964  0.66405625    -0.78470
O260        O  0.12307988  0.33997043  0.52958315    -0.83670
C261        C  0.20041462  0.35048431  0.62328855     0.97370
C262        C  0.10641812  0.36508000  0.51908720     1.03280
O263        O  0.16918649  0.36970247  0.62377764    -0.79310
C264        C  0.10585757  0.26201886  0.64683092     1.01580
Fe265      Fe  0.29429440  0.06712834  0.64223320     1.65780
Fe266      Fe  0.37020892  0.05933746  0.57690974     1.73250
Fe267      Fe  0.34770860  0.12678652  0.61613153     1.54420
O268        O  0.27741251  0.14119090  0.60930242    -0.83050
O269        O  0.44093910  0.07317577  0.62019945    -0.81350
O270        O  0.24846998  0.10078376  0.62926714    -0.85550
O271        O  0.33370938  0.08877466  0.71363621    -0.80410
O272        O  0.32971369  0.12746817  0.53961998    -0.82180
O273        O  0.37616311  0.02285467  0.61896925    -0.84930
C274        C  0.35479445  0.11435135  0.72429453     0.95840
C275        C  0.24523344  0.12762911  0.62056926     1.03280
O276        O  0.33904205  0.08424072  0.61418417    -1.13910
O277        O  0.30112843  0.04768734  0.52428142    -0.76340
O278        O  0.25050356  0.05107847  0.56705760    -0.79830
O279        O  0.36621059  0.12926862  0.69268488    -0.80520
C280        C  0.25800235  0.04761413  0.52505924     0.94740
O281        O  0.32918317  0.02690951  0.66403898    -0.78470
O282        O  0.37301580  0.08992501  0.52965343    -0.83670
C283        C  0.45039516  0.10052320  0.62339352     0.97370
C284        C  0.35637620  0.11503844  0.51916078     1.03280
O285        O  0.41915712  0.11973270  0.62389124    -0.79310
C286        C  0.35588375  0.01199521  0.64691804     1.01580
Fe287      Fe  0.17867727  0.06714026  0.85681820     1.65780
Fe288      Fe  0.10275641  0.05935302  0.92213558     1.73250
Fe289      Fe  0.12518860  0.12679437  0.88283470     1.54420
O290        O  0.19545331  0.14122246  0.88956798    -0.83050
O291        O  0.03200857  0.07314001  0.87878307    -0.81350
O292        O  0.22456441  0.10076904  0.86995610    -0.85550
O293        O  0.13936353  0.08883676  0.78542288    -0.80410
O294        O  0.14321422  0.12749840  0.95935595    -0.82180
O295        O  0.09696024  0.02283480  0.88018736    -0.84930
C296        C  0.11817899  0.11438323  0.77472244     0.95840
C297        C  0.22771550  0.12763501  0.87847359     1.03280
O298        O  0.13390490  0.08425126  0.88483352    -1.13910
O299        O  0.17182482  0.04776585  0.97480666    -0.76340
O300        O  0.22241668  0.05102038  0.93197981    -0.79830
O301        O  0.10663502  0.12926222  0.80628358    -0.80520
C302        C  0.21493601  0.04761922  0.97400182     0.94740
O303        O  0.14367171  0.02696912  0.83484048    -0.78470
O304        O  0.09987183  0.08997234  0.96931343    -0.83670
C305        C  0.02253631  0.10048649  0.87560826     0.97370
C306        C  0.11653233  0.11508247  0.97980941     1.03280
O307        O  0.05376475  0.11970454  0.87511884    -0.79310
C308        C  0.11709101  0.01201936  0.85206473     1.01580
Fe309      Fe  0.42953988  0.17445629  0.85703753     1.65780
Fe310      Fe  0.35235443  0.18371622  0.92007428     1.73250
Fe311      Fe  0.37654500  0.11541433  0.88484319     1.54420
O312        O  0.35795523  0.11250600  0.80798632    -0.83050
O313        O  0.35339983  0.15479836  0.97177105    -0.81350
O314        O  0.38737270  0.15393714  0.78550059    -0.85550
O315        O  0.47262234  0.13986620  0.86571682    -0.80410
O316        O  0.30512141  0.12163573  0.87763774    -0.82180
O317        O  0.42157048  0.19808233  0.97103857    -0.84930
C318        C  0.47696502  0.11335906  0.87676076     0.95840
C319        C  0.36747281  0.12794688  0.77554722     1.03280
O320        O  0.38439304  0.15792563  0.88498308    -1.13910
O321        O  0.34031474  0.21757808  0.87057448    -0.76340
O322        O  0.39876487  0.21600943  0.83948034    -0.79830
O323        O  0.44677147  0.10060787  0.89205850    -0.80520
C324        C  0.36671429  0.22984135  0.85030505     0.94740
O325        O  0.47471823  0.18861723  0.93297116    -0.78470
O326        O  0.28211031  0.16791431  0.88015244    -0.83670
C327        C  0.36958882  0.12954078  0.98236642     0.97370
C328        C  0.27346969  0.14055491  0.87792046     1.03280
O329        O  0.39517954  0.11641073  0.96133039    -0.79310
C330        C  0.46561504  0.19495669  0.97321781     1.01580
Fe331      Fe  0.04343432  0.17448419  0.64200010     1.65780
Fe332      Fe  0.12060452  0.18374361  0.57895050     1.73250
Fe333      Fe  0.09637451  0.11544121  0.61414056     1.54420
O334        O  0.11495638  0.11252463  0.69100421    -0.83050
O335        O  0.11949770  0.15485119  0.52718974    -0.81350
O336        O  0.08565342  0.15398579  0.71353753    -0.85550
O337        O  0.00036209  0.13989172  0.63340912    -0.80410
O338        O  0.16781066  0.12163382  0.62136670    -0.82180
O339        O  0.05138110  0.19814734  0.52803025    -0.84930
C340        C  0.99597487  0.11339812  0.62227093     0.95840
C341        C  0.10550623  0.12798161  0.72347023     1.03280
O342        O  0.08855913  0.15795008  0.61402739    -1.13910
O343        O  0.13275192  0.21756197  0.62855704    -0.76340
O344        O  0.07415596  0.21606011  0.65944096    -0.79830
O345        O  0.02612234  0.10066503  0.60688402    -0.80520
C346        C  0.10625555  0.22986839  0.64866063     0.94740
O347        O  0.99823124  0.18860199  0.56606308    -0.78470
O348        O  0.19083206  0.16790779  0.61881489    -0.83670
C349        C  0.10332331  0.12958936  0.51660505     0.97370
C350        C  0.19946667  0.14054812  0.62107825     1.03280
O351        O  0.07774997  0.11645304  0.53765460    -0.79310
C352        C  0.00733617  0.19496869  0.52582923     1.01580
Fe353      Fe  0.29341227  0.92445498  0.14186362     1.65780
Fe354      Fe  0.37059821  0.93371682  0.07882846     1.73250
Fe355      Fe  0.34640517  0.86541390  0.11405310     1.54420
O356        O  0.36499364  0.86250515  0.19090987    -0.83050
O357        O  0.36954881  0.90480055  0.02712638    -0.81350
O358        O  0.33558144  0.90393737  0.21339948    -0.85550
O359        O  0.25033156  0.88986367  0.13318659    -0.80410
O360        O  0.41782912  0.87163508  0.12125939    -0.82180
O361        O  0.30138199  0.94808500  0.02786721    -0.84930
C362        C  0.24598663  0.86335703  0.12213760     0.95840
C363        C  0.35547848  0.87794656  0.22335056     1.03280
O364        O  0.33855871  0.90792511  0.11391668    -1.13910
O365        O  0.38264349  0.96757604  0.12833687    -0.76340
O366        O  0.32418353  0.96600975  0.15941694    -0.79830
O367        O  0.27617785  0.85060702  0.10683504    -0.80520
C368        C  0.35623725  0.97984109  0.14859656     0.94740
O369        O  0.24823339  0.93861384  0.06593093    -0.78470
O370        O  0.44084193  0.91791343  0.11874557    -0.83670
C371        C  0.35336142  0.87954232  0.01653073     0.97360
C372        C  0.44948138  0.89055401  0.12097647     1.03280
O373        O  0.32777144  0.86641134  0.03756637    -0.79310
C374        C  0.25733715  0.94495621  0.02568607     1.01580
Fe375      Fe  0.17951739  0.92448520  0.35690096     1.65780
Fe376      Fe  0.10234786  0.93374252  0.41995261     1.73250
Fe377      Fe  0.12657456  0.86544129  0.38475481     1.54410
O378        O  0.10799142  0.86252543  0.30789112    -0.83050
O379        O  0.10344983  0.90484809  0.47170700    -0.81350
O380        O  0.13730072  0.90398529  0.28536233    -0.85550
O381        O  0.22259149  0.88989383  0.36549485    -0.80410
O382        O  0.05513894  0.87163445  0.37752959    -0.82180
O383        O  0.17157136  0.94814341  0.47087637    -0.84930
C384        C  0.22697613  0.86339963  0.37662748     0.95840
C385        C  0.11744474  0.87798178  0.27542706     1.03280
O386        O  0.13439199  0.90795028  0.38487207    -1.13910
O387        O  0.09020726  0.96756432  0.37035650    -0.76440
O388        O  0.14879166  0.96605952  0.33945590    -0.79830
O389        O  0.19682570  0.85066523  0.39200853    -0.80520
C390        C  0.11669617  0.97986866  0.35024185     0.94740
O391        O  0.22471988  0.93860517  0.43283877    -0.78470
O392        O  0.03211955  0.91790868  0.38008284    -0.83670
C393        C  0.11962599  0.87958697  0.48229136     0.97360
C394        C  0.02348360  0.89054902  0.37781818     1.03280
O395        O  0.14519991  0.86645164  0.46124119    -0.79310
C396        C  0.21561589  0.94496846  0.47307480     1.01580
Fe397      Fe  0.42865456  0.81712884  0.35666158     1.65780
Fe398      Fe  0.35273998  0.80933867  0.42198470     1.73250
Fe399      Fe  0.37524250  0.87678758  0.38276593     1.54410
O400        O  0.44553895  0.89119189  0.38959612    -0.83050
O401        O  0.28201041  0.82317742  0.37869687    -0.81350
O402        O  0.47447844  0.85078493  0.36962655    -0.85550
O403        O  0.38923903  0.83877401  0.28525913    -0.80410
O404        O  0.39323682  0.87747026  0.45927725    -0.82180
O405        O  0.34678161  0.77285652  0.37992162    -0.84930
C406        C  0.36815608  0.86435105  0.27460235     0.95840
C407        C  0.47771652  0.87763020  0.37832677     1.03280
O408        O  0.38390781  0.83424166  0.38471171    -1.13910
O409        O  0.42182017  0.79768718  0.47461162    -0.76340
O410        O  0.47244569  0.80108000  0.43183646    -0.79830
O411        O  0.35674135  0.87926885  0.30621288    -0.80520
C412        C  0.46494644  0.79761433  0.47383414     0.94740
O413        O  0.39376690  0.77690901  0.33485732    -0.78470
O414        O  0.34993614  0.83992617  0.46924345    -0.83670
C415        C  0.27255528  0.85052478  0.37550379     0.97360
C416        C  0.36657478  0.86504008  0.47973625     1.03280
O417        O  0.30379369  0.86973415  0.37500595    -0.79310
C418        C  0.36706454  0.76199559  0.35197705     1.01580
Fe419      Fe  0.04427159  0.81713950  0.14207620     1.65780
Fe420      Fe  0.12019265  0.80935119  0.07675881     1.73250
Fe421      Fe  0.09776321  0.87679281  0.11606283     1.54410
O422        O  0.02749938  0.89122139  0.10933179    -0.83050
O423        O  0.19094136  0.82313777  0.12011284    -0.81350
O424        O  0.99838372  0.85076754  0.12893608    -0.85550
O425        O  0.08358421  0.83883749  0.21347183    -0.80410
O426        O  0.07973612  0.87749556  0.03954123    -0.82180
O427        O  0.12598475  0.77283256  0.11870391    -0.84930
C428        C  0.10477173  0.86438335  0.22417410     0.95840
C429        C  0.99523502  0.87763378  0.12042244     1.03280
O430        O  0.08904525  0.83424984  0.11406230    -1.13910
O431        O  0.05112378  0.79776530  0.02408642    -0.76340
O432        O  0.00053264  0.80101812  0.06691429    -0.79830
O433        O  0.11631842  0.87926143  0.19261431    -0.80520
C434        C  0.00801277  0.79761826  0.02489161     0.94740
O435        O  0.07927869  0.77696964  0.16405625    -0.78470
O436        O  0.12307987  0.83997042  0.02958314    -0.83670
C437        C  0.20041460  0.85048431  0.12328855     0.97370
C438        C  0.10641810  0.86508000  0.01908719     1.03280
O439        O  0.16918648  0.86970246  0.12377763    -0.79310
C440        C  0.10585755  0.76201885  0.14683092     1.01580
Fe441      Fe  0.29429439  0.56712833  0.14223322     1.65780
Fe442      Fe  0.37020890  0.55933745  0.07690975     1.73250
Fe443      Fe  0.34770857  0.62678652  0.11613151     1.54420
O444        O  0.27741246  0.64119089  0.10930238    -0.83050
O445        O  0.44093907  0.57317577  0.12019944    -0.81350
O446        O  0.24846998  0.60078376  0.12926720    -0.85550
O447        O  0.33370940  0.58877465  0.21363623    -0.80410
O448        O  0.32971365  0.62746815  0.03961996    -0.82180
O449        O  0.37616312  0.52285467  0.11896929    -0.84930
C450        C  0.35479444  0.61435135  0.22429453     0.95840
C451        C  0.24523341  0.62762911  0.12056927     1.03280
O452        O  0.33904202  0.58424072  0.11418417    -1.13910
O453        O  0.30112840  0.54768731  0.02428144    -0.76340
O454        O  0.25050353  0.55107848  0.06705762    -0.79830
O455        O  0.36621055  0.62926863  0.19268486    -0.80520
C456        C  0.25800232  0.54761412  0.02505926     0.94740
O457        O  0.32918313  0.52690950  0.16403898    -0.78470
O458        O  0.37301576  0.58992499  0.02965342    -0.83670
C459        C  0.45039513  0.60052320  0.12339351     0.97370
C460        C  0.35637616  0.61503842  0.01916076     1.03280
O461        O  0.41915709  0.61973270  0.12389122    -0.79310
C462        C  0.35588374  0.51199520  0.14691806     1.01580
Fe463      Fe  0.17867728  0.56714025  0.35681818     1.65780
Fe464      Fe  0.10275643  0.55935301  0.42213557     1.73250
Fe465      Fe  0.12518864  0.62679437  0.38283472     1.54420
O466        O  0.19545335  0.64122245  0.38956801    -0.83050
O467        O  0.03200860  0.57314001  0.37878308    -0.81350
O468        O  0.22456441  0.60076904  0.36995605    -0.85550
O469        O  0.13936351  0.58883675  0.28542286    -0.80410
O470        O  0.14321425  0.62749838  0.45935596    -0.82180
O471        O  0.09696023  0.52283479  0.38018732    -0.84930
C472        C  0.11817899  0.61438323  0.27472244     0.95840
C473        C  0.22771552  0.62763501  0.37847359     1.03280
O474        O  0.13390492  0.58425125  0.38483351    -1.13910
O475        O  0.17182484  0.54776583  0.47480663    -0.76340
O476        O  0.22241671  0.55102038  0.43197979    -0.79830
O477        O  0.10663506  0.62926222  0.30628359    -0.80520
C478        C  0.21493604  0.54761921  0.47400180     0.94740
O479        O  0.14367174  0.52696911  0.33484049    -0.78470
O480        O  0.09987186  0.58997232  0.46931344    -0.83670
C481        C  0.02253634  0.60048649  0.37560827     0.97370
C482        C  0.11653236  0.61508246  0.47980943     1.03280
O483        O  0.05376478  0.61970454  0.37511885    -0.79310
C484        C  0.11709102  0.51201936  0.35206472     1.01580
Fe485      Fe  0.42953989  0.67445629  0.35703751     1.65780
Fe486      Fe  0.35235445  0.68371623  0.42007427     1.73250
Fe487      Fe  0.37654503  0.61541434  0.38484320     1.54420
O488        O  0.35795526  0.61250599  0.30798634    -0.83050
O489        O  0.35339986  0.65479838  0.47177107    -0.81350
O490        O  0.38737270  0.65393714  0.28550058    -0.85550
O491        O  0.47262235  0.63986620  0.36571679    -0.80410
O492        O  0.30512144  0.62163572  0.37763775    -0.82180
O493        O  0.42157051  0.69808235  0.47103855    -0.84930
C494        C  0.47696504  0.61335906  0.37676076     0.95840
C495        C  0.36747282  0.62794688  0.27554722     1.03280
O496        O  0.38439306  0.65792563  0.38498308    -1.13910
O497        O  0.34031473  0.71757807  0.37057444    -0.76340
O498        O  0.39876489  0.71600943  0.33948034    -0.79830
O499        O  0.44677151  0.60060788  0.39205853    -0.80520
C500        C  0.36671430  0.72984135  0.35030504     0.94740
O501        O  0.47471825  0.68861722  0.43297114    -0.78470
O502        O  0.28211033  0.66791431  0.38015244    -0.83670
C503        C  0.36958886  0.62954080  0.48236643     0.97370
C504        C  0.27346971  0.64055490  0.37792046     1.03280
O505        O  0.39517957  0.61641074  0.46133040    -0.79310
C506        C  0.46561507  0.69495669  0.47321779     1.01580
Fe507      Fe  0.04343431  0.67448419  0.14200011     1.65780
Fe508      Fe  0.12060450  0.68374362  0.07895051     1.73250
Fe509      Fe  0.09637447  0.61544121  0.11414054     1.54420
O510        O  0.11495634  0.61252463  0.19100419    -0.83050
O511        O  0.11949766  0.65485120  0.02718972    -0.81350
O512        O  0.08565342  0.65398579  0.21353754    -0.85550
O513        O  0.00036208  0.63989172  0.13340916    -0.80410
O514        O  0.16781063  0.62163381  0.12136668    -0.82180
O515        O  0.05138108  0.69814735  0.02803027    -0.84930
C516        C  0.99597484  0.61339813  0.12227093     0.95840
C517        C  0.10550621  0.62798161  0.22347022     1.03280
O518        O  0.08855910  0.65795009  0.11402739    -1.13910
O519        O  0.13275193  0.71756196  0.12855709    -0.76340
O520        O  0.07415593  0.71606011  0.15944096    -0.79830
O521        O  0.02612230  0.60066504  0.10688399    -0.80520
C522        C  0.10625554  0.72986838  0.14866065     0.94740
O523        O  0.99823122  0.68860198  0.06606309    -0.78470
O524        O  0.19083203  0.66790779  0.11881488    -0.83670
C525        C  0.10332327  0.62958938  0.01660503     0.97370
C526        C  0.19946665  0.64054812  0.12107824     1.03280
O527        O  0.07774993  0.61645306  0.03765458    -0.79310
C528        C  0.00733615  0.69496869  0.02582924     1.01580
Fe529      Fe  0.29341230  0.92445498  0.64186361     1.65780
Fe530      Fe  0.37059824  0.93371681  0.57882845     1.73250
Fe531      Fe  0.34640521  0.86541390  0.61405312     1.54420
O532        O  0.36499369  0.86250516  0.69090989    -0.83050
O533        O  0.36954885  0.90480053  0.52712639    -0.81350
O534        O  0.33558145  0.90393738  0.71339947    -0.85550
O535        O  0.25033158  0.88986367  0.63318656    -0.80410
O536        O  0.41782916  0.87163508  0.62125941    -0.82180
O537        O  0.30138202  0.94808498  0.52786718    -0.84930
C538        C  0.24598666  0.86335703  0.62213760     0.95840
C539        C  0.35547850  0.87794656  0.72335057     1.03280
O540        O  0.33855874  0.90792511  0.61391668    -1.13910
O541        O  0.38264350  0.96757604  0.62833682    -0.76340
O542        O  0.32418357  0.96600975  0.65941693    -0.79830
O543        O  0.27617790  0.85060701  0.60683508    -0.80520
C544        C  0.35623727  0.97984109  0.64859654     0.94740
O545        O  0.24823342  0.93861385  0.56593091    -0.78470
O546        O  0.44084196  0.91791343  0.61874557    -0.83670
C547        C  0.35336146  0.87954230  0.51653075     0.97360
C548        C  0.44948141  0.89055401  0.62097648     1.03280
O549        O  0.32777149  0.86641132  0.53756639    -0.79310
C550        C  0.25733719  0.94495621  0.52568605     1.01580
Fe551      Fe  0.17951736  0.92448520  0.85690098     1.65780
Fe552      Fe  0.10234783  0.93374251  0.91995262     1.73250
Fe553      Fe  0.12657452  0.86544129  0.88475478     1.54410
O554        O  0.10799137  0.86252544  0.80789110    -0.83050
O555        O  0.10344979  0.90484807  0.97170699    -0.81350
O556        O  0.13730071  0.90398529  0.78536233    -0.85550
O557        O  0.22259147  0.88989384  0.86549488    -0.80410
O558        O  0.05513890  0.87163446  0.87752958    -0.82180
O559        O  0.17157133  0.94814339  0.97087640    -0.84930
C560        C  0.22697609  0.86339963  0.87662748     0.95840
C561        C  0.11744472  0.87798179  0.77542706     1.03280
O562        O  0.13439196  0.90795028  0.88487207    -1.13910
O563        O  0.09020726  0.96756433  0.87035655    -0.76440
O564        O  0.14879162  0.96605952  0.83945590    -0.79830
O565        O  0.19682565  0.85066522  0.89200849    -0.80520
C566        C  0.11669615  0.97986867  0.85024187     0.94740
O567        O  0.22471985  0.93860519  0.93283879    -0.78470
O568        O  0.03211952  0.91790869  0.88008284    -0.83670
C569        C  0.11962595  0.87958695  0.98229134     0.97360
C570        C  0.02348356  0.89054902  0.87781818     1.03280
O571        O  0.14519986  0.86645162  0.96124117    -0.79310
C572        C  0.21561586  0.94496846  0.97307483     1.01580
Fe573      Fe  0.42865455  0.81712885  0.85666160     1.65780
Fe574      Fe  0.35273995  0.80933868  0.92198471     1.73250
Fe575      Fe  0.37524245  0.87678758  0.88276590     1.54410
O576        O  0.44553890  0.89119190  0.88959607    -0.83050
O577        O  0.28201038  0.82317742  0.87869686    -0.81350
O578        O  0.47447844  0.85078493  0.86962662    -0.85550
O579        O  0.38923905  0.83877402  0.78525916    -0.80410
O580        O  0.39323678  0.87747029  0.95927723    -0.82180
O581        O  0.34678162  0.77285653  0.87992166    -0.84930
C582        C  0.36815608  0.86435106  0.77460236     0.95840
C583        C  0.47771649  0.87763020  0.87832678     1.03280
O584        O  0.38390778  0.83424167  0.88471171    -1.13910
O585        O  0.42182013  0.79768720  0.97461165    -0.76340
O586        O  0.47244565  0.80107998  0.93183649    -0.79830
O587        O  0.35674130  0.87926885  0.80621286    -0.80520
C588        C  0.46494640  0.79761433  0.97383417     0.94740
O589        O  0.39376686  0.77690902  0.83485731    -0.78470
O590        O  0.34993609  0.83992620  0.96924343    -0.83670
C591        C  0.27255524  0.85052478  0.87550378     0.97360
C592        C  0.36657474  0.86504010  0.97973623     1.03280
O593        O  0.30379365  0.86973415  0.87500593    -0.79310
C594        C  0.36706453  0.76199560  0.85197707     1.01580
Fe595      Fe  0.04427160  0.81713950  0.64207617     1.65780
Fe596      Fe  0.12019267  0.80935121  0.57675880     1.73250
Fe597      Fe  0.09776326  0.87679282  0.61606285     1.54410
O598        O  0.02749943  0.89122140  0.60933184    -0.83050
O599        O  0.19094139  0.82313777  0.62011285    -0.81350
O600        O  0.99838371  0.85076754  0.62893600    -0.85550
O601        O  0.08358418  0.83883751  0.71347180    -0.80410
O602        O  0.07973616  0.87749558  0.53954125    -0.82180
O603        O  0.12598474  0.77283257  0.61870387    -0.84930
C604        C  0.10477173  0.86438335  0.72417410     0.95840
C605        C  0.99523505  0.87763378  0.62042243     1.03280
O606        O  0.08904528  0.83424985  0.61406229    -1.13910
O607        O  0.05112382  0.79776533  0.52408638    -0.76340
O608        O  0.00053268  0.80101811  0.56691426    -0.79830
O609        O  0.11631847  0.87926142  0.69261433    -0.80520
C610        C  0.00801280  0.79761826  0.52489158     0.94740
O611        O  0.07927873  0.77696965  0.66405626    -0.78470
O612        O  0.12307992  0.83997044  0.52958316    -0.83670
C613        C  0.20041464  0.85048431  0.62328856     0.97370
C614        C  0.10641814  0.86508002  0.51908721     1.03280
O615        O  0.16918652  0.86970246  0.62377765    -0.79310
C616        C  0.10585756  0.76201886  0.64683090     1.01580
Fe617      Fe  0.29429439  0.56712834  0.64223322     1.65780
Fe618      Fe  0.37020891  0.55933746  0.57690976     1.73250
Fe619      Fe  0.34770857  0.62678653  0.61613152     1.54420
O620        O  0.27741247  0.64119090  0.60930239    -0.83050
O621        O  0.44093908  0.57317578  0.62019944    -0.81350
O622        O  0.24846998  0.60078377  0.62926719    -0.85550
O623        O  0.33370939  0.58877466  0.71363623    -0.80410
O624        O  0.32971366  0.62746816  0.53961996    -0.82180
O625        O  0.37616312  0.52285468  0.61896929    -0.84930
C626        C  0.35479444  0.61435136  0.72429453     0.95840
C627        C  0.24523342  0.62762912  0.62056927     1.03280
O628        O  0.33904203  0.58424072  0.61418417    -1.13910
O629        O  0.30112841  0.54768732  0.52428144    -0.76340
O630        O  0.25050353  0.55107849  0.56705762    -0.79830
O631        O  0.36621056  0.62926863  0.69268486    -0.80520
C632        C  0.25800233  0.54761412  0.52505926     0.94740
O633        O  0.32918314  0.52690951  0.66403898    -0.78470
O634        O  0.37301576  0.58992500  0.52965342    -0.83670
C635        C  0.45039514  0.60052321  0.62339351     0.97370
C636        C  0.35637617  0.61503843  0.51916077     1.03280
O637        O  0.41915709  0.61973271  0.62389123    -0.79310
C638        C  0.35588374  0.51199521  0.64691806     1.01580
Fe639      Fe  0.17867728  0.56714026  0.85681818     1.65780
Fe640      Fe  0.10275643  0.55935301  0.92213557     1.73250
Fe641      Fe  0.12518863  0.62679437  0.88283471     1.54420
O642        O  0.19545335  0.64122245  0.88956801    -0.83050
O643        O  0.03200859  0.57314002  0.87878307    -0.81350
O644        O  0.22456441  0.60076904  0.86995606    -0.85550
O645        O  0.13936352  0.58883676  0.78542286    -0.80410
O646        O  0.14321425  0.62749839  0.95935596    -0.82180
O647        O  0.09696023  0.52283480  0.88018732    -0.84930
C648        C  0.11817899  0.61438324  0.77472244     0.95840
C649        C  0.22771551  0.62763502  0.87847359     1.03280
O650        O  0.13390492  0.58425126  0.88483351    -1.13910
O651        O  0.17182483  0.54776584  0.97480663    -0.76340
O652        O  0.22241670  0.55102039  0.93197979    -0.79830
O653        O  0.10663505  0.62926223  0.80628359    -0.80520
C654        C  0.21493604  0.54761922  0.97400179     0.94740
O655        O  0.14367173  0.52696912  0.83484048    -0.78470
O656        O  0.09987186  0.58997233  0.96931344    -0.83670
C657        C  0.02253633  0.60048649  0.87560827     0.97370
C658        C  0.11653236  0.61508246  0.97980942     1.03280
O659        O  0.05376478  0.61970454  0.87511885    -0.79310
C660        C  0.11709102  0.51201936  0.85206472     1.01580
Fe661      Fe  0.42953988  0.67445630  0.85703752     1.65780
Fe662      Fe  0.35235445  0.68371623  0.92007428     1.73250
Fe663      Fe  0.37654502  0.61541434  0.88484320     1.54420
O664        O  0.35795525  0.61250600  0.80798634    -0.83050
O665        O  0.35339985  0.65479837  0.97177107    -0.81350
O666        O  0.38737270  0.65393715  0.78550058    -0.85550
O667        O  0.47262236  0.63986621  0.86571680    -0.80410
O668        O  0.30512143  0.62163573  0.87763775    -0.82180
O669        O  0.42157050  0.69808234  0.97103857    -0.84930
C670        C  0.47696504  0.61335908  0.87676076     0.95840
C671        C  0.36747282  0.62794689  0.77554722     1.03280
O672        O  0.38439305  0.65792564  0.88498309    -1.13910
O673        O  0.34031474  0.71757808  0.87057448    -0.76340
O674        O  0.39876487  0.71600944  0.83948034    -0.79830
O675        O  0.44677150  0.60060789  0.89205851    -0.80520
C676        C  0.36671429  0.72984136  0.85030505     0.94740
O677        O  0.47471824  0.68861723  0.93297115    -0.78470
O678        O  0.28211033  0.66791432  0.88015245    -0.83670
C679        C  0.36958885  0.62954079  0.98236643     0.97370
C680        C  0.27346971  0.64055491  0.87792047     1.03280
O681        O  0.39517957  0.61641074  0.96133040    -0.79310
C682        C  0.46561506  0.69495670  0.97321781     1.01580
Fe683      Fe  0.04343431  0.67448420  0.64200011     1.65780
Fe684      Fe  0.12060450  0.68374362  0.57895050     1.73250
Fe685      Fe  0.09637448  0.61544121  0.61414054     1.54420
O686        O  0.11495635  0.61252464  0.69100419    -0.83050
O687        O  0.11949767  0.65485120  0.52718972    -0.81350
O688        O  0.08565342  0.65398580  0.71353754    -0.85550
O689        O  0.00036208  0.63989173  0.63340915    -0.80410
O690        O  0.16781063  0.62163382  0.62136668    -0.82180
O691        O  0.05138108  0.69814735  0.52803026    -0.84930
C692        C  0.99597484  0.61339813  0.62227093     0.95840
C693        C  0.10550622  0.62798162  0.72347023     1.03280
O694        O  0.08855911  0.65795009  0.61402738    -1.13910
O695        O  0.13275192  0.71756197  0.62855706    -0.76340
O696        O  0.07415595  0.71606012  0.65944096    -0.79830
O697        O  0.02612230  0.60066505  0.60688400    -0.80520
C698        C  0.10625554  0.72986839  0.64866063     0.94740
O699        O  0.99823123  0.68860199  0.56606309    -0.78470
O700        O  0.19083204  0.66790780  0.61881487    -0.83670
C701        C  0.10332328  0.62958937  0.51660504     0.97370
C702        C  0.19946665  0.64054812  0.62107824     1.03280
O703        O  0.07774993  0.61645306  0.53765459    -0.79310
C704        C  0.00733615  0.69496870  0.52582923     1.01580
Fe705      Fe  0.79341229  0.42445497  0.14186362     1.65780
Fe706      Fe  0.87059824  0.43371681  0.07882846     1.73250
Fe707      Fe  0.84640521  0.36541390  0.11405312     1.54420
O708        O  0.86499369  0.36250515  0.19090989    -0.83050
O709        O  0.86954884  0.40480054  0.02712639    -0.81350
O710        O  0.83558145  0.40393737  0.21339948    -0.85550
O711        O  0.75033158  0.38986366  0.13318657    -0.80410
O712        O  0.91782915  0.37163508  0.12125940    -0.82180
O713        O  0.80138201  0.44808499  0.02786720    -0.84930
C714        C  0.74598666  0.36335702  0.12213760     0.95840
C715        C  0.85547851  0.37794656  0.22335057     1.03280
O716        O  0.83855873  0.40792511  0.11391668    -1.13910
O717        O  0.88264350  0.46757604  0.12833684    -0.76340
O718        O  0.82418356  0.46600974  0.15941694    -0.79830
O719        O  0.77617789  0.35060701  0.10683507    -0.80520
C720        C  0.85623726  0.47984109  0.14859655     0.94740
O721        O  0.74823341  0.43861384  0.06593093    -0.78470
O722        O  0.94084196  0.41791343  0.11874557    -0.83670
C723        C  0.85336146  0.37954230  0.01653075     0.97360
C724        C  0.94948141  0.39055401  0.12097648     1.03280
O725        O  0.82777148  0.36641132  0.03756639    -0.79310
C726        C  0.75733718  0.44495621  0.02568606     1.01580
Fe727      Fe  0.67951738  0.42448520  0.35690097     1.65780
Fe728      Fe  0.60234785  0.43374251  0.41995261     1.73250
Fe729      Fe  0.62657453  0.36544129  0.38475479     1.54410
O730        O  0.60799139  0.36252543  0.30789111    -0.83050
O731        O  0.60344981  0.40484808  0.47170699    -0.81350
O732        O  0.63730072  0.40398529  0.28536233    -0.85550
O733        O  0.72259147  0.38989382  0.36549486    -0.80410
O734        O  0.55513891  0.37163446  0.37752958    -0.82180
O735        O  0.67157135  0.44814340  0.47087638    -0.84930
C736        C  0.72697610  0.36339962  0.37662748     0.95840
C737        C  0.61744473  0.37798179  0.27542706     1.03280
O738        O  0.63439197  0.40795027  0.38487207    -1.13910
O739        O  0.59020726  0.46756432  0.37035651    -0.76440
O740        O  0.64879164  0.46605952  0.33945591    -0.79830
O741        O  0.69682567  0.35066522  0.39200851    -0.80520
C742        C  0.61669617  0.47986866  0.35024186     0.94740
O743        O  0.72471987  0.43860517  0.43283878    -0.78470
O744        O  0.53211954  0.41790868  0.38008284    -0.83670
C745        C  0.61962597  0.37958696  0.48229135     0.97360
C746        C  0.52348358  0.39054902  0.37781818     1.03280
O747        O  0.64519988  0.36645162  0.46124118    -0.79310
C748        C  0.71561588  0.44496846  0.47307481     1.01580
Fe749      Fe  0.92865456  0.31712884  0.35666161     1.65780
Fe750      Fe  0.85273997  0.30933867  0.42198471     1.73250
Fe751      Fe  0.87524247  0.37678758  0.38276591     1.54410
O752        O  0.94553891  0.39119190  0.38959608    -0.83050
O753        O  0.78201039  0.32317741  0.37869686    -0.81350
O754        O  0.97447846  0.35078493  0.36962663    -0.85550
O755        O  0.88923907  0.33877402  0.28525916    -0.80410
O756        O  0.89323680  0.37747028  0.45927724    -0.82180
O757        O  0.84678164  0.27285652  0.37992167    -0.84930
C758        C  0.86815609  0.36435105  0.27460236     0.95840
C759        C  0.97771650  0.37763020  0.37832679     1.03280
O760        O  0.88390780  0.33424167  0.38471172    -1.13910
O761        O  0.92182015  0.29768720  0.47461165    -0.76340
O762        O  0.97244567  0.30107998  0.43183649    -0.79830
O763        O  0.85674131  0.37926885  0.30621286    -0.80520
C764        C  0.96494642  0.29761433  0.47383417     0.94740
O765        O  0.89376687  0.27690902  0.33485731    -0.78470
O766        O  0.84993610  0.33992619  0.46924343    -0.83670
C767        C  0.77255525  0.35052477  0.37550378     0.97360
C768        C  0.86657476  0.36504009  0.47973624     1.03280
O769        O  0.80379367  0.36973414  0.37500594    -0.79310
C770        C  0.86706455  0.26199560  0.35197707     1.01580
Fe771      Fe  0.54427160  0.31713950  0.14207617     1.65780
Fe772      Fe  0.62019267  0.30935120  0.07675880     1.73250
Fe773      Fe  0.59776325  0.37679281  0.11606285     1.54410
O774        O  0.52749943  0.39122140  0.10933183    -0.83050
O775        O  0.69094139  0.32313776  0.12011285    -0.81350
O776        O  0.49838371  0.35076753  0.12893600    -0.85550
O777        O  0.58358418  0.33883751  0.21347180    -0.80410
O778        O  0.57973615  0.37749557  0.03954125    -0.82180
O779        O  0.62598473  0.27283256  0.11870387    -0.84930
C780        C  0.60477173  0.36438335  0.22417409     0.95840
C781        C  0.49523505  0.37763378  0.12042243     1.03280
O782        O  0.58904527  0.33424984  0.11406229    -1.13910
O783        O  0.55112381  0.29776533  0.02408638    -0.76340
O784        O  0.50053267  0.30101811  0.06691426    -0.79830
O785        O  0.61631847  0.37926142  0.19261433    -0.80520
C786        C  0.50801280  0.29761826  0.02489158     0.94740
O787        O  0.57927872  0.27696965  0.16405626    -0.78470
O788        O  0.62307992  0.33997044  0.02958316    -0.83670
C789        C  0.70041464  0.35048430  0.12328856     0.97370
C790        C  0.60641814  0.36508001  0.01908721     1.03280
O791        O  0.66918651  0.36970246  0.12377764    -0.79310
C792        C  0.60585755  0.26201886  0.14683091     1.01580
Fe793      Fe  0.79429438  0.06712834  0.14223325     1.65780
Fe794      Fe  0.87020889  0.05933745  0.07690978     1.73250
Fe795      Fe  0.84770853  0.12678652  0.11613150     1.54420
O796        O  0.77741242  0.14119089  0.10930234    -0.83050
O797        O  0.94093906  0.07317578  0.12019944    -0.81350
O798        O  0.74846999  0.10078377  0.12926726    -0.85550
O799        O  0.83370942  0.08877465  0.21363625    -0.80410
O800        O  0.82971363  0.12746814  0.03961994    -0.82180
O801        O  0.87616314  0.02285467  0.11896934    -0.84930
C802        C  0.85479444  0.11435135  0.22429454     0.95840
C803        C  0.74523340  0.12762911  0.12056928     1.03280
O804        O  0.83904201  0.08424072  0.11418418    -1.13910
O805        O  0.80112839  0.04768729  0.02428148    -0.76340
O806        O  0.75050351  0.05107850  0.06705765    -0.79830
O807        O  0.86621051  0.12926864  0.19268485    -0.80520
C808        C  0.75800231  0.04761412  0.02505930     0.94740
O809        O  0.82918311  0.02690950  0.16403898    -0.78470
O810        O  0.87301573  0.08992498  0.02965341    -0.83670
C811        C  0.95039511  0.10052321  0.12339351     0.97370
C812        C  0.85637613  0.11503841  0.01916075     1.03280
O813        O  0.91915706  0.11973271  0.12389122    -0.79310
C814        C  0.85588373  0.01199520  0.14691808     1.01580
Fe815      Fe  0.67867729  0.06714026  0.35681815     1.65780
Fe816      Fe  0.60275645  0.05935300  0.42213555     1.73250
Fe817      Fe  0.62518867  0.12679437  0.38283474     1.54420
O818        O  0.69545340  0.14122244  0.38956806    -0.83050
O819        O  0.53200862  0.07314002  0.37878308    -0.81350
O820        O  0.72456440  0.10076905  0.36995598    -0.85550
O821        O  0.63936348  0.08883675  0.28542284    -0.80410
O822        O  0.64321428  0.12749837  0.45935598    -0.82180
O823        O  0.59696021  0.02283480  0.38018727    -0.84930
C824        C  0.61817900  0.11438324  0.27472243     0.95840
C825        C  0.72771554  0.12763501  0.37847358     1.03280
O826        O  0.63390494  0.08425125  0.38483350    -1.13910
O827        O  0.67182486  0.04776581  0.47480660    -0.76340
O828        O  0.72241673  0.05102040  0.43197976    -0.79830
O829        O  0.60663511  0.12926224  0.30628361    -0.80520
C830        C  0.71493606  0.04761921  0.47400176     0.94740
O831        O  0.64367177  0.02696911  0.33484049    -0.78470
O832        O  0.59987190  0.08997230  0.46931345    -0.83670
C833        C  0.52253636  0.10048650  0.37560827     0.97370
C834        C  0.61653239  0.11508244  0.47980944     1.03280
O835        O  0.55376481  0.11970455  0.37511886    -0.79310
C836        C  0.61709103  0.01201936  0.35206470     1.01580
Fe837      Fe  0.92953990  0.17445630  0.35703751     1.65780
Fe838      Fe  0.85235447  0.18371624  0.42007427     1.73250
Fe839      Fe  0.87654506  0.11541435  0.38484322     1.54420
O840        O  0.85795530  0.11250600  0.30798636    -0.83050
O841        O  0.85339990  0.15479840  0.47177109    -0.81350
O842        O  0.88737270  0.15393715  0.28550058    -0.85550
O843        O  0.97262237  0.13986620  0.36571676    -0.80410
O844        O  0.80512147  0.12163573  0.37763777    -0.82180
O845        O  0.92157053  0.19808237  0.47103853    -0.84930
C846        C  0.97696507  0.11335908  0.37676076     0.95840
C847        C  0.86747284  0.12794689  0.27554723     1.03280
O848        O  0.88439308  0.15792564  0.38498309    -1.13910
O849        O  0.84031472  0.21757807  0.37057442    -0.76340
O850        O  0.89876491  0.21600945  0.33948036    -0.79830
O851        O  0.94677155  0.10060790  0.39205856    -0.80520
C852        C  0.86671431  0.22984136  0.35030504     0.94740
O853        O  0.97471827  0.18861722  0.43297114    -0.78470
O854        O  0.78211036  0.16791431  0.38015246    -0.83670
C855        C  0.86958889  0.12954081  0.48236645     0.97370
C856        C  0.77346974  0.14055491  0.37792047     1.03280
O857        O  0.89517960  0.11641076  0.46133042    -0.79310
C858        C  0.96561509  0.19495670  0.47321779     1.01580
Fe859      Fe  0.54343429  0.17448420  0.14200012     1.65780
Fe860      Fe  0.62060448  0.18374363  0.07895051     1.73250
Fe861      Fe  0.59637444  0.11544122  0.11414052     1.54420
O862        O  0.61495631  0.11252463  0.19100417    -0.83050
O863        O  0.61949763  0.15485122  0.02718971    -0.81350
O864        O  0.58565343  0.15398580  0.21353755    -0.85550
O865        O  0.50036207  0.13989173  0.13340918    -0.80410
O866        O  0.66781060  0.12163382  0.12136667    -0.82180
O867        O  0.55138106  0.19814737  0.02803028    -0.84930
C868        C  0.49597482  0.11339814  0.12227093     0.95840
C869        C  0.60550620  0.12798162  0.22347022     1.03280
O870        O  0.58855908  0.15795009  0.11402738    -1.13910
O871        O  0.63275193  0.21756196  0.12855711    -0.76340
O872        O  0.57415591  0.21606012  0.15944094    -0.79830
O873        O  0.52612226  0.10066506  0.10688396    -0.80520
C874        C  0.60625553  0.22986839  0.14866065     0.94740
O875        O  0.49823120  0.18860198  0.06606310    -0.78470
O876        O  0.69083201  0.16790779  0.11881486    -0.83670
C877        C  0.60332324  0.12958939  0.01660502     0.97370
C878        C  0.69946662  0.14054812  0.12107823     1.03280
O879        O  0.57774990  0.11645308  0.03765457    -0.79310
C880        C  0.50733613  0.19496870  0.02582925     1.01580
Fe881      Fe  0.79341228  0.42445498  0.64186361     1.65780
Fe882      Fe  0.87059823  0.43371681  0.57882845     1.73250
Fe883      Fe  0.84640518  0.36541391  0.61405311     1.54420
O884        O  0.86499366  0.36250516  0.69090987    -0.83050
O885        O  0.86954883  0.40480054  0.52712638    -0.81350
O886        O  0.83558144  0.40393738  0.71339948    -0.85550
O887        O  0.75033157  0.38986367  0.63318657    -0.80410
O888        O  0.91782913  0.37163508  0.62125940    -0.82180
O889        O  0.80138201  0.44808499  0.52786719    -0.84930
C890        C  0.74598664  0.36335703  0.62213759     0.95840
C891        C  0.85547849  0.37794656  0.72335056     1.03280
O892        O  0.83855872  0.40792511  0.61391668    -1.13910
O893        O  0.88264350  0.46757604  0.62833684    -0.76340
O894        O  0.82418355  0.46600975  0.65941694    -0.79830
O895        O  0.77617786  0.35060703  0.60683505    -0.80520
C896        C  0.85623726  0.47984110  0.64859655     0.94740
O897        O  0.74823340  0.43861385  0.56593092    -0.78470
O898        O  0.94084194  0.41791343  0.61874557    -0.83670
C899        C  0.85336144  0.37954231  0.51653074     0.97360
C900        C  0.94948139  0.39055401  0.62097648     1.03280
O901        O  0.82777146  0.36641133  0.53756637    -0.79310
C902        C  0.75733717  0.44495621  0.52568606     1.01580
Fe903      Fe  0.67951738  0.42448521  0.85690097     1.65780
Fe904      Fe  0.60234785  0.43374252  0.91995262     1.73250
Fe905      Fe  0.62657456  0.36544130  0.88475480     1.54410
O906        O  0.60799141  0.36252544  0.80789112    -0.83050
O907        O  0.60344982  0.40484808  0.97170699    -0.81350
O908        O  0.63730072  0.40398529  0.78536233    -0.85550
O909        O  0.72259149  0.38989384  0.86549486    -0.80410
O910        O  0.55513893  0.37163446  0.87752958    -0.82180
O911        O  0.67157135  0.44814340  0.97087639    -0.84930
C912        C  0.72697612  0.36339964  0.87662748     0.95840
C913        C  0.61744474  0.37798179  0.77542707     1.03280
O914        O  0.63439198  0.40795028  0.88487208    -1.13910
O915        O  0.59020727  0.46756433  0.87035653    -0.76440
O916        O  0.64879164  0.46605953  0.83945590    -0.79830
O917        O  0.69682569  0.35066524  0.89200852    -0.80520
C918        C  0.61669616  0.47986867  0.85024186     0.94740
O919        O  0.72471987  0.43860519  0.93283878    -0.78470
O920        O  0.53211955  0.41790869  0.88008284    -0.83670
C921        C  0.61962599  0.37958696  0.98229136     0.97360
C922        C  0.52348359  0.39054902  0.87781818     1.03280
O923        O  0.64519990  0.36645164  0.96124119    -0.79310
C924        C  0.71561589  0.44496846  0.97307482     1.01580
Fe925      Fe  0.92865455  0.31712885  0.85666157     1.65780
Fe926      Fe  0.85273997  0.30933867  0.92198469     1.73250
Fe927      Fe  0.87524249  0.37678758  0.88276592     1.54410
O928        O  0.94553895  0.39119189  0.88959612    -0.83050
O929        O  0.78201040  0.32317743  0.87869687    -0.81350
O930        O  0.97447843  0.35078494  0.86962654    -0.85550
O931        O  0.88923902  0.33877401  0.78525913    -0.80410
O932        O  0.89323682  0.37747027  0.95927725    -0.82180
O933        O  0.84678159  0.27285653  0.87992161    -0.84930
C934        C  0.86815608  0.36435105  0.77460235     0.95840
C935        C  0.97771651  0.37763020  0.87832676     1.03280
O936        O  0.88390781  0.33424167  0.88471171    -1.13910
O937        O  0.92182016  0.29768718  0.97461161    -0.76340
O938        O  0.97244568  0.30108000  0.93183646    -0.79830
O939        O  0.85674135  0.37926886  0.80621287    -0.80520
C940        C  0.96494643  0.29761433  0.97383413     0.94740
O941        O  0.89376689  0.27690901  0.83485732    -0.78470
O942        O  0.84993614  0.33992618  0.96924344    -0.83670
C943        C  0.77255527  0.35052479  0.87550379     0.97360
C944        C  0.86657478  0.36504009  0.97973625     1.03280
O945        O  0.80379369  0.36973416  0.87500594    -0.79310
C946        C  0.86706453  0.26199560  0.85197705     1.01580
Fe947      Fe  0.54427161  0.31713950  0.64207620     1.65780
Fe948      Fe  0.62019266  0.30935120  0.57675881     1.73250
Fe949      Fe  0.59776323  0.37679282  0.61606284     1.54410
O950        O  0.52749940  0.39122139  0.60933180    -0.83050
O951        O  0.69094137  0.32313777  0.62011284    -0.81350
O952        O  0.49838373  0.35076754  0.62893607    -0.85550
O953        O  0.58358422  0.33883750  0.71347183    -0.80410
O954        O  0.57973614  0.37749557  0.53954124    -0.82180
O955        O  0.62598477  0.27283257  0.61870391    -0.84930
C956        C  0.60477174  0.36438335  0.72417410     0.95840
C957        C  0.49523504  0.37763378  0.62042245     1.03280
O958        O  0.58904526  0.33424985  0.61406230    -1.13910
O959        O  0.55112380  0.29776531  0.52408641    -0.76340
O960        O  0.50053266  0.30101813  0.56691429    -0.79830
O961        O  0.61631843  0.37926143  0.69261432    -0.80520
C962        C  0.50801278  0.29761826  0.52489161     0.94740
O963        O  0.57927871  0.27696964  0.66405625    -0.78470
O964        O  0.62307988  0.33997043  0.52958315    -0.83670
C965        C  0.70041462  0.35048431  0.62328855     0.97370
C966        C  0.60641812  0.36508001  0.51908720     1.03280
O967        O  0.66918649  0.36970247  0.62377764    -0.79310
C968        C  0.60585757  0.26201886  0.64683092     1.01580
Fe969      Fe  0.79429440  0.06712834  0.64223319     1.65780
Fe970      Fe  0.87020892  0.05933747  0.57690974     1.73250
Fe971      Fe  0.84770861  0.12678653  0.61613153     1.54420
O972        O  0.77741252  0.14119090  0.60930243    -0.83050
O973        O  0.94093910  0.07317577  0.62019945    -0.81350
O974        O  0.74846997  0.10078376  0.62926712    -0.85550
O975        O  0.83370937  0.08877466  0.71363620    -0.80410
O976        O  0.82971369  0.12746818  0.53961998    -0.82180
O977        O  0.87616309  0.02285467  0.61896923    -0.84930
C978        C  0.85479445  0.11435135  0.72429453     0.95840
C979        C  0.74523344  0.12762911  0.62056926     1.03280
O980        O  0.83904205  0.08424072  0.61418416    -1.13910
O981        O  0.80112843  0.04768734  0.52428141    -0.76340
O982        O  0.75050355  0.05107847  0.56705759    -0.79830
O983        O  0.86621060  0.12926862  0.69268488    -0.80520
C984        C  0.75800235  0.04761413  0.52505923     0.94740
O985        O  0.82918317  0.02690951  0.66403899    -0.78470
O986        O  0.87301580  0.08992502  0.52965343    -0.83670
C987        C  0.95039516  0.10052319  0.62339352     0.97370
C988        C  0.85637620  0.11503845  0.51916078     1.03280
O989        O  0.91915712  0.11973269  0.62389123    -0.79310
C990        C  0.85588374  0.01199521  0.64691803     1.01580
Fe991      Fe  0.67867728  0.06714025  0.85681821     1.65780
Fe992      Fe  0.60275642  0.05935301  0.92213559     1.73250
Fe993      Fe  0.62518860  0.12679437  0.88283470     1.54420
O994        O  0.69545330  0.14122246  0.88956796    -0.83050
O995        O  0.53200858  0.07314001  0.87878308    -0.81350
O996        O  0.72456442  0.10076903  0.86995612    -0.85550
O997        O  0.63936354  0.08883676  0.78542289    -0.80410
O998        O  0.64321422  0.12749840  0.95935595    -0.82180
O999        O  0.59696025  0.02283479  0.88018738    -0.84930
C1000       C  0.61817899  0.11438323  0.77472244     0.95840
C1001       C  0.72771550  0.12763501  0.87847360     1.03280
O1002       O  0.63390491  0.08425125  0.88483352    -1.13910
O1003       O  0.67182482  0.04776585  0.97480667    -0.76340
O1004       O  0.72241668  0.05102037  0.93197982    -0.79830
O1005       O  0.60663501  0.12926221  0.80628358    -0.80520
C1006       C  0.71493602  0.04761922  0.97400183     0.94740
O1007       O  0.64367170  0.02696912  0.83484048    -0.78470
O1008       O  0.59987183  0.08997234  0.96931343    -0.83670
C1009       C  0.52253631  0.10048648  0.87560826     0.97370
C1010       C  0.61653233  0.11508248  0.97980941     1.03280
O1011       O  0.55376475  0.11970453  0.87511884    -0.79310
C1012       C  0.61709102  0.01201936  0.85206474     1.01580
Fe1013     Fe  0.92953987  0.17445629  0.85703753     1.65780
Fe1014     Fe  0.85235443  0.18371622  0.92007428     1.73250
Fe1015     Fe  0.87654499  0.11541433  0.88484318     1.54420
O1016       O  0.85795522  0.11250600  0.80798632    -0.83050
O1017       O  0.85339982  0.15479835  0.97177105    -0.81350
O1018       O  0.88737270  0.15393714  0.78550059    -0.85550
O1019       O  0.97262235  0.13986620  0.86571683    -0.80410
O1020       O  0.80512141  0.12163573  0.87763774    -0.82180
O1021       O  0.92157048  0.19808233  0.97103858    -0.84930
C1022       C  0.97696502  0.11335906  0.87676076     0.95840
C1023       C  0.86747281  0.12794688  0.77554722     1.03280
O1024       O  0.88439303  0.15792563  0.88498308    -1.13910
O1025       O  0.84031474  0.21757808  0.87057451    -0.76340
O1026       O  0.89876485  0.21600943  0.83948032    -0.79830
O1027       O  0.94677147  0.10060788  0.89205848    -0.80520
C1028       C  0.86671429  0.22984136  0.85030505     0.94740
O1029       O  0.97471822  0.18861724  0.93297116    -0.78470
O1030       O  0.78211031  0.16791431  0.88015243    -0.83670
C1031       C  0.86958882  0.12954077  0.98236641     0.97370
C1032       C  0.77346968  0.14055491  0.87792046     1.03280
O1033       O  0.89517954  0.11641072  0.96133038    -0.79310
C1034       C  0.96561504  0.19495669  0.97321781     1.01580
Fe1035     Fe  0.54343433  0.17448419  0.64200010     1.65780
Fe1036     Fe  0.62060452  0.18374361  0.57895050     1.73250
Fe1037     Fe  0.59637451  0.11544120  0.61414056     1.54420
O1038       O  0.61495639  0.11252463  0.69100421    -0.83050
O1039       O  0.61949770  0.15485118  0.52718974    -0.81350
O1040       O  0.58565342  0.15398578  0.71353754    -0.85550
O1041       O  0.50036209  0.13989172  0.63340912    -0.80410
O1042       O  0.66781066  0.12163382  0.62136670    -0.82180
O1043       O  0.55138111  0.19814733  0.52803024    -0.84930
C1044       C  0.49597487  0.11339812  0.62227094     0.95840
C1045       C  0.60550623  0.12798161  0.72347023     1.03280
O1046       O  0.58855913  0.15795008  0.61402739    -1.13910
O1047       O  0.63275192  0.21756197  0.62855703    -0.76340
O1048       O  0.57415597  0.21606011  0.65944097    -0.79830
O1049       O  0.52612234  0.10066503  0.60688403    -0.80520
C1050       C  0.60625555  0.22986839  0.64866063     0.94740
O1051       O  0.49823125  0.18860199  0.56606308    -0.78470
O1052       O  0.69083206  0.16790779  0.61881489    -0.83670
C1053       C  0.60332331  0.12958935  0.51660506     0.97370
C1054       C  0.69946668  0.14054812  0.62107825     1.03280
O1055       O  0.57774997  0.11645304  0.53765461    -0.79310
C1056       C  0.50733617  0.19496869  0.52582923     1.01580
Fe1057     Fe  0.79341227  0.92445498  0.14186362     1.65780
Fe1058     Fe  0.87059821  0.93371681  0.07882846     1.73250
Fe1059     Fe  0.84640517  0.86541390  0.11405310     1.54420
O1060       O  0.86499364  0.86250515  0.19090987    -0.83050
O1061       O  0.86954881  0.90480055  0.02712638    -0.81350
O1062       O  0.83558144  0.90393737  0.21339948    -0.85550
O1063       O  0.75033156  0.88986367  0.13318658    -0.80410
O1064       O  0.91782912  0.87163508  0.12125939    -0.82180
O1065       O  0.80138199  0.94808500  0.02786721    -0.84930
C1066       C  0.74598663  0.86335703  0.12213759     0.95840
C1067       C  0.85547848  0.87794655  0.22335056     1.03280
O1068       O  0.83855871  0.90792511  0.11391668    -1.13910
O1069       O  0.88264349  0.96757604  0.12833686    -0.76340
O1070       O  0.82418354  0.96600974  0.15941694    -0.79830
O1071       O  0.77617784  0.85060702  0.10683504    -0.80520
C1072       C  0.85623725  0.97984109  0.14859657     0.94740
O1073       O  0.74823339  0.93861384  0.06593093    -0.78470
O1074       O  0.94084193  0.91791343  0.11874557    -0.83670
C1075       C  0.85336142  0.87954232  0.01653073     0.97360
C1076       C  0.94948138  0.89055401  0.12097648     1.03280
O1077       O  0.82777144  0.86641134  0.03756637    -0.79310
C1078       C  0.75733716  0.94495621  0.02568607     1.01580
Fe1079     Fe  0.67951739  0.92448520  0.35690096     1.65780
Fe1080     Fe  0.60234786  0.93374252  0.41995261     1.73250
Fe1081     Fe  0.62657456  0.86544129  0.38475481     1.54410
O1082       O  0.60799142  0.86252543  0.30789112    -0.83050
O1083       O  0.60344983  0.90484809  0.47170700    -0.81350
O1084       O  0.63730072  0.90398529  0.28536233    -0.85550
O1085       O  0.72259149  0.88989383  0.36549485    -0.80410
O1086       O  0.55513894  0.87163445  0.37752959    -0.82180
O1087       O  0.67157136  0.94814340  0.47087638    -0.84930
C1088       C  0.72697613  0.86339963  0.37662748     0.95840
C1089       C  0.61744474  0.87798178  0.27542706     1.03280
O1090       O  0.63439199  0.90795028  0.38487207    -1.13910
O1091       O  0.59020727  0.96756432  0.37035651    -0.76440
O1092       O  0.64879165  0.96605952  0.33945590    -0.79830
O1093       O  0.69682570  0.85066523  0.39200853    -0.80520
C1094       C  0.61669617  0.97986866  0.35024185     0.94740
O1095       O  0.72471988  0.93860518  0.43283878    -0.78470
O1096       O  0.53211955  0.91790868  0.38008284    -0.83670
C1097       C  0.61962599  0.87958697  0.48229136     0.97360
C1098       C  0.52348360  0.89054902  0.37781818     1.03280
O1099       O  0.64519991  0.86645164  0.46124119    -0.79310
C1100       C  0.71561589  0.94496846  0.47307481     1.01580
Fe1101     Fe  0.92865456  0.81712884  0.35666158     1.65780
Fe1102     Fe  0.85273998  0.80933867  0.42198470     1.73250
Fe1103     Fe  0.87524250  0.87678758  0.38276593     1.54410
O1104       O  0.94553895  0.89119189  0.38959612    -0.83050
O1105       O  0.78201041  0.82317742  0.37869687    -0.81350
O1106       O  0.97447844  0.85078493  0.36962655    -0.85550
O1107       O  0.88923903  0.83877401  0.28525913    -0.80410
O1108       O  0.89323682  0.87747027  0.45927725    -0.82180
O1109       O  0.84678161  0.77285652  0.37992162    -0.84930
C1110       C  0.86815608  0.86435105  0.27460235     0.95840
C1111       C  0.97771652  0.87763020  0.37832677     1.03280
O1112       O  0.88390781  0.83424167  0.38471171    -1.13910
O1113       O  0.92182017  0.79768718  0.47461162    -0.76340
O1114       O  0.97244569  0.80108000  0.43183646    -0.79830
O1115       O  0.85674135  0.87926885  0.30621288    -0.80520
C1116       C  0.96494644  0.79761433  0.47383414     0.94740
O1117       O  0.89376690  0.77690901  0.33485732    -0.78470
O1118       O  0.84993614  0.83992618  0.46924345    -0.83670
C1119       C  0.77255528  0.85052478  0.37550379     0.97360
C1120       C  0.86657478  0.86504008  0.47973625     1.03280
O1121       O  0.80379369  0.86973415  0.37500595    -0.79310
C1122       C  0.86706454  0.76199559  0.35197705     1.01580
Fe1123     Fe  0.54427159  0.81713950  0.14207620     1.65780
Fe1124     Fe  0.62019264  0.80935120  0.07675881     1.73250
Fe1125     Fe  0.59776321  0.87679281  0.11606283     1.54410
O1126       O  0.52749938  0.89122139  0.10933179    -0.83050
O1127       O  0.69094136  0.82313777  0.12011284    -0.81350
O1128       O  0.49838371  0.85076754  0.12893607    -0.85550
O1129       O  0.58358421  0.83883750  0.21347183    -0.80410
O1130       O  0.57973612  0.87749556  0.03954123    -0.82180
O1131       O  0.62598475  0.77283256  0.11870391    -0.84930
C1132       C  0.60477173  0.86438335  0.22417410     0.95840
C1133       C  0.49523502  0.87763378  0.12042244     1.03280
O1134       O  0.58904525  0.83424984  0.11406230    -1.13910
O1135       O  0.55112378  0.79776531  0.02408641    -0.76340
O1136       O  0.50053264  0.80101813  0.06691429    -0.79830
O1137       O  0.61631842  0.87926143  0.19261431    -0.80520
C1138       C  0.50801277  0.79761826  0.02489161     0.94740
O1139       O  0.57927869  0.77696964  0.16405625    -0.78470
O1140       O  0.62307987  0.83997042  0.02958314    -0.83670
C1141       C  0.70041460  0.85048431  0.12328855     0.97370
C1142       C  0.60641810  0.86508000  0.01908719     1.03280
O1143       O  0.66918648  0.86970247  0.12377763    -0.79310
C1144       C  0.60585755  0.76201886  0.14683092     1.01580
Fe1145     Fe  0.79429438  0.56712833  0.14223321     1.65780
Fe1146     Fe  0.87020890  0.55933746  0.07690975     1.73250
Fe1147     Fe  0.84770857  0.62678652  0.11613151     1.54420
O1148       O  0.77741247  0.64119089  0.10930239    -0.83050
O1149       O  0.94093907  0.57317577  0.12019944    -0.81350
O1150       O  0.74846997  0.60078376  0.12926719    -0.85550
O1151       O  0.83370939  0.58877465  0.21363622    -0.80410
O1152       O  0.82971365  0.62746816  0.03961996    -0.82180
O1153       O  0.87616311  0.52285467  0.11896928    -0.84930
C1154       C  0.85479444  0.61435135  0.22429453     0.95840
C1155       C  0.74523341  0.62762911  0.12056927     1.03280
O1156       O  0.83904202  0.58424072  0.11418417    -1.13910
O1157       O  0.80112840  0.54768732  0.02428144    -0.76340
O1158       O  0.75050353  0.55107848  0.06705761    -0.79830
O1159       O  0.86621055  0.62926863  0.19268486    -0.80520
C1160       C  0.75800232  0.54761412  0.02505926     0.94740
O1161       O  0.82918314  0.52690950  0.16403898    -0.78470
O1162       O  0.87301576  0.58992500  0.02965342    -0.83670
C1163       C  0.95039513  0.60052320  0.12339351     0.97370
C1164       C  0.85637616  0.61503843  0.01916077     1.03280
O1165       O  0.91915709  0.61973270  0.12389122    -0.79310
C1166       C  0.85588373  0.51199520  0.14691805     1.01580
Fe1167     Fe  0.67867729  0.56714025  0.35681818     1.65780
Fe1168     Fe  0.60275644  0.55935301  0.42213557     1.73250
Fe1169     Fe  0.62518864  0.62679437  0.38283472     1.54420
O1170       O  0.69545335  0.64122245  0.38956801    -0.83050
O1171       O  0.53200860  0.57314001  0.37878308    -0.81350
O1172       O  0.72456441  0.60076904  0.36995605    -0.85550
O1173       O  0.63936352  0.58883675  0.28542286    -0.80410
O1174       O  0.64321426  0.62749838  0.45935596    -0.82180
O1175       O  0.59696024  0.52283479  0.38018733    -0.84930
C1176       C  0.61817899  0.61438323  0.27472244     0.95840
C1177       C  0.72771552  0.62763501  0.37847359     1.03280
O1178       O  0.63390493  0.58425125  0.38483351    -1.13910
O1179       O  0.67182484  0.54776583  0.47480664    -0.76340
O1180       O  0.72241671  0.55102038  0.43197979    -0.79830
O1181       O  0.60663506  0.62926222  0.30628359    -0.80520
C1182       C  0.71493604  0.54761921  0.47400180     0.94740
O1183       O  0.64367174  0.52696911  0.33484049    -0.78470
O1184       O  0.59987186  0.58997232  0.46931345    -0.83670
C1185       C  0.52253634  0.60048649  0.37560827     0.97370
C1186       C  0.61653236  0.61508246  0.47980943     1.03280
O1187       O  0.55376478  0.61970454  0.37511885    -0.79310
C1188       C  0.61709103  0.51201935  0.35206472     1.01580
Fe1189     Fe  0.92953989  0.67445629  0.35703751     1.65780
Fe1190     Fe  0.85235445  0.68371622  0.42007427     1.73250
Fe1191     Fe  0.87654503  0.61541434  0.38484320     1.54420
O1192       O  0.85795526  0.61250599  0.30798634    -0.83050
O1193       O  0.85339986  0.65479837  0.47177107    -0.81350
O1194       O  0.88737270  0.65393714  0.28550058    -0.85550
O1195       O  0.97262236  0.63986620  0.36571679    -0.80410
O1196       O  0.80512144  0.62163573  0.37763775    -0.82180
O1197       O  0.92157051  0.69808235  0.47103855    -0.84930
C1198       C  0.97696504  0.61335907  0.37676076     0.95840
C1199       C  0.86747282  0.62794688  0.27554722     1.03280
O1200       O  0.88439306  0.65792563  0.38498308    -1.13910
O1201       O  0.84031473  0.71757807  0.37057445    -0.76340
O1202       O  0.89876488  0.71600943  0.33948034    -0.79830
O1203       O  0.94677151  0.60060789  0.39205852    -0.80520
C1204       C  0.86671430  0.72984135  0.35030504     0.94740
O1205       O  0.97471825  0.68861722  0.43297115    -0.78470
O1206       O  0.78211033  0.66791431  0.38015244    -0.83670
C1207       C  0.86958886  0.62954079  0.48236643     0.97370
C1208       C  0.77346971  0.64055490  0.37792046     1.03280
O1209       O  0.89517957  0.61641074  0.46133040    -0.79310
C1210       C  0.96561507  0.69495669  0.47321779     1.01580
Fe1211     Fe  0.54343431  0.67448419  0.14200011     1.65780
Fe1212     Fe  0.62060450  0.68374362  0.07895051     1.73250
Fe1213     Fe  0.59637448  0.61544121  0.11414054     1.54420
O1214       O  0.61495635  0.61252463  0.19100419    -0.83050
O1215       O  0.61949766  0.65485120  0.02718972    -0.81350
O1216       O  0.58565342  0.65398579  0.21353754    -0.85550
O1217       O  0.50036208  0.63989172  0.13340916    -0.80410
O1218       O  0.66781063  0.62163381  0.12136668    -0.82180
O1219       O  0.55138108  0.69814735  0.02803027    -0.84930
C1220       C  0.49597484  0.61339813  0.12227093     0.95840
C1221       C  0.60550621  0.62798161  0.22347023     1.03280
O1222       O  0.58855910  0.65795009  0.11402739    -1.13910
O1223       O  0.63275192  0.71756197  0.12855708    -0.76340
O1224       O  0.57415594  0.71606011  0.15944096    -0.79830
O1225       O  0.52612230  0.60066504  0.10688399    -0.80520
C1226       C  0.60625554  0.72986839  0.14866065     0.94740
O1227       O  0.49823122  0.68860198  0.06606310    -0.78470
O1228       O  0.69083203  0.66790779  0.11881488    -0.83670
C1229       C  0.60332327  0.62958937  0.01660504     0.97370
C1230       C  0.69946665  0.64054812  0.12107824     1.03280
O1231       O  0.57774993  0.61645306  0.03765458    -0.79310
C1232       C  0.50733615  0.69496869  0.02582924     1.01580
Fe1233     Fe  0.79341230  0.92445498  0.64186361     1.65780
Fe1234     Fe  0.87059824  0.93371681  0.57882845     1.73250
Fe1235     Fe  0.84640521  0.86541390  0.61405313     1.54420
O1236       O  0.86499369  0.86250516  0.69090989    -0.83050
O1237       O  0.86954885  0.90480053  0.52712639    -0.81350
O1238       O  0.83558145  0.90393738  0.71339948    -0.85550
O1239       O  0.75033158  0.88986367  0.63318656    -0.80410
O1240       O  0.91782916  0.87163509  0.62125941    -0.82180
O1241       O  0.80138202  0.94808498  0.52786719    -0.84930
C1242       C  0.74598667  0.86335703  0.62213760     0.95840
C1243       C  0.85547850  0.87794656  0.72335057     1.03280
O1244       O  0.83855874  0.90792511  0.61391668    -1.13910
O1245       O  0.88264350  0.96757604  0.62833683    -0.76340
O1246       O  0.82418357  0.96600975  0.65941694    -0.79830
O1247       O  0.77617790  0.85060701  0.60683508    -0.80520
C1248       C  0.85623727  0.97984110  0.64859654     0.94740
O1249       O  0.74823342  0.93861385  0.56593092    -0.78470
O1250       O  0.94084196  0.91791343  0.61874557    -0.83670
C1251       C  0.85336146  0.87954230  0.51653075     0.97360
C1252       C  0.94948141  0.89055401  0.62097648     1.03280
O1253       O  0.82777149  0.86641132  0.53756639    -0.79310
C1254       C  0.75733719  0.94495621  0.52568606     1.01580
Fe1255     Fe  0.67951737  0.92448520  0.85690097     1.65780
Fe1256     Fe  0.60234783  0.93374251  0.91995262     1.73250
Fe1257     Fe  0.62657452  0.86544129  0.88475478     1.54410
O1258       O  0.60799137  0.86252544  0.80789110    -0.83050
O1259       O  0.60344979  0.90484807  0.97170699    -0.81350
O1260       O  0.63730071  0.90398529  0.78536233    -0.85550
O1261       O  0.72259147  0.88989383  0.86549487    -0.80410
O1262       O  0.55513890  0.87163446  0.87752957    -0.82180
O1263       O  0.67157133  0.94814339  0.97087639    -0.84930
C1264       C  0.72697609  0.86339962  0.87662748     0.95840
C1265       C  0.61744472  0.87798179  0.77542706     1.03280
O1266       O  0.63439196  0.90795028  0.88487207    -1.13910
O1267       O  0.59020725  0.96756432  0.87035653    -0.76440
O1268       O  0.64879163  0.96605952  0.83945591    -0.79830
O1269       O  0.69682565  0.85066522  0.89200850    -0.80520
C1270       C  0.61669615  0.97986867  0.85024187     0.94740
O1271       O  0.72471985  0.93860518  0.93283879    -0.78470
O1272       O  0.53211952  0.91790869  0.88008284    -0.83670
C1273       C  0.61962595  0.87958695  0.98229134     0.97360
C1274       C  0.52348356  0.89054902  0.87781818     1.03280
O1275       O  0.64519986  0.86645162  0.96124117    -0.79310
C1276       C  0.71561587  0.94496846  0.97307482     1.01580
Fe1277     Fe  0.92865455  0.81712885  0.85666160     1.65780
Fe1278     Fe  0.85273995  0.80933868  0.92198471     1.73250
Fe1279     Fe  0.87524245  0.87678758  0.88276591     1.54410
O1280       O  0.94553890  0.89119190  0.88959607    -0.83050
O1281       O  0.78201038  0.82317741  0.87869686    -0.81350
O1282       O  0.97447844  0.85078493  0.86962663    -0.85550
O1283       O  0.88923906  0.83877402  0.78525916    -0.80410
O1284       O  0.89323678  0.87747028  0.95927723    -0.82180
O1285       O  0.84678163  0.77285652  0.87992166    -0.84930
C1286       C  0.86815608  0.86435106  0.77460236     0.95840
C1287       C  0.97771649  0.87763020  0.87832678     1.03280
O1288       O  0.88390779  0.83424167  0.88471172    -1.13910
O1289       O  0.92182013  0.79768720  0.97461165    -0.76340
O1290       O  0.97244565  0.80107998  0.93183649    -0.79830
O1291       O  0.85674129  0.87926885  0.80621286    -0.80520
C1292       C  0.96494640  0.79761433  0.97383417     0.94740
O1293       O  0.89376686  0.77690902  0.83485730    -0.78470
O1294       O  0.84993609  0.83992620  0.96924343    -0.83670
C1295       C  0.77255524  0.85052477  0.87550378     0.97360
C1296       C  0.86657474  0.86504010  0.97973623     1.03280
O1297       O  0.80379365  0.86973415  0.87500593    -0.79310
C1298       C  0.86706453  0.76199560  0.85197707     1.01580
Fe1299     Fe  0.54427160  0.81713950  0.64207617     1.65780
Fe1300     Fe  0.62019267  0.80935121  0.57675880     1.73250
Fe1301     Fe  0.59776326  0.87679282  0.61606285     1.54410
O1302       O  0.52749943  0.89122140  0.60933184    -0.83050
O1303       O  0.69094139  0.82313777  0.62011286    -0.81350
O1304       O  0.49838371  0.85076754  0.62893600    -0.85550
O1305       O  0.58358418  0.83883751  0.71347180    -0.80410
O1306       O  0.57973616  0.87749558  0.53954125    -0.82180
O1307       O  0.62598474  0.77283256  0.61870387    -0.84930
C1308       C  0.60477173  0.86438335  0.72417410     0.95840
C1309       C  0.49523505  0.87763378  0.62042243     1.03280
O1310       O  0.58904528  0.83424985  0.61406229    -1.13910
O1311       O  0.55112382  0.79776533  0.52408638    -0.76340
O1312       O  0.50053268  0.80101811  0.56691426    -0.79830
O1313       O  0.61631847  0.87926142  0.69261433    -0.80520
C1314       C  0.50801280  0.79761826  0.52489158     0.94740
O1315       O  0.57927873  0.77696965  0.66405626    -0.78470
O1316       O  0.62307992  0.83997044  0.52958316    -0.83670
C1317       C  0.70041464  0.85048431  0.62328856     0.97370
C1318       C  0.60641814  0.86508002  0.51908721     1.03280
O1319       O  0.66918652  0.86970246  0.62377765    -0.79310
C1320       C  0.60585756  0.76201886  0.64683090     1.01580
Fe1321     Fe  0.79429439  0.56712834  0.64223322     1.65780
Fe1322     Fe  0.87020891  0.55933746  0.57690976     1.73250
Fe1323     Fe  0.84770857  0.62678653  0.61613151     1.54420
O1324       O  0.77741247  0.64119090  0.60930238    -0.83050
O1325       O  0.94093908  0.57317578  0.62019945    -0.81350
O1326       O  0.74846998  0.60078377  0.62926720    -0.85550
O1327       O  0.83370940  0.58877466  0.71363623    -0.80410
O1328       O  0.82971366  0.62746816  0.53961996    -0.82180
O1329       O  0.87616313  0.52285468  0.61896930    -0.84930
C1330       C  0.85479444  0.61435135  0.72429454     0.95840
C1331       C  0.74523342  0.62762912  0.62056927     1.03280
O1332       O  0.83904203  0.58424072  0.61418417    -1.13910
O1333       O  0.80112841  0.54768732  0.52428145    -0.76340
O1334       O  0.75050353  0.55107849  0.56705762    -0.79830
O1335       O  0.86621055  0.62926863  0.69268486    -0.80520
C1336       C  0.75800233  0.54761412  0.52505927     0.94740
O1337       O  0.82918314  0.52690951  0.66403898    -0.78470
O1338       O  0.87301576  0.58992500  0.52965342    -0.83670
C1339       C  0.95039514  0.60052321  0.62339351     0.97370
C1340       C  0.85637617  0.61503843  0.51916077     1.03280
O1341       O  0.91915709  0.61973271  0.62389123    -0.79310
C1342       C  0.85588374  0.51199521  0.64691806     1.01580
Fe1343     Fe  0.67867728  0.56714026  0.85681817     1.65780
Fe1344     Fe  0.60275643  0.55935301  0.92213556     1.73250
Fe1345     Fe  0.62518863  0.62679437  0.88283471     1.54420
O1346       O  0.69545335  0.64122245  0.88956801    -0.83050
O1347       O  0.53200859  0.57314002  0.87878307    -0.81350
O1348       O  0.72456440  0.60076904  0.86995604    -0.85550
O1349       O  0.63936351  0.58883676  0.78542286    -0.80410
O1350       O  0.64321425  0.62749839  0.95935596    -0.82180
O1351       O  0.59696022  0.52283480  0.88018731    -0.84930
C1352       C  0.61817899  0.61438324  0.77472244     0.95840
C1353       C  0.72771551  0.62763502  0.87847359     1.03280
O1354       O  0.63390492  0.58425126  0.88483351    -1.13910
O1355       O  0.67182483  0.54776583  0.97480662    -0.76340
O1356       O  0.72241670  0.55102039  0.93197978    -0.79830
O1357       O  0.60663506  0.62926223  0.80628359    -0.80520
C1358       C  0.71493603  0.54761922  0.97400179     0.94740
O1359       O  0.64367173  0.52696912  0.83484048    -0.78470
O1360       O  0.59987186  0.58997233  0.96931344    -0.83670
C1361       C  0.52253633  0.60048650  0.87560826     0.97370
C1362       C  0.61653236  0.61508246  0.97980942     1.03280
O1363       O  0.55376478  0.61970455  0.87511885    -0.79310
C1364       C  0.61709102  0.51201936  0.85206471     1.01580
Fe1365     Fe  0.92953989  0.67445630  0.85703752     1.65780
Fe1366     Fe  0.85235445  0.68371623  0.92007428     1.73250
Fe1367     Fe  0.87654503  0.61541434  0.88484320     1.54420
O1368       O  0.85795526  0.61250600  0.80798634    -0.83050
O1369       O  0.85339986  0.65479838  0.97177107    -0.81350
O1370       O  0.88737270  0.65393715  0.78550058    -0.85550
O1371       O  0.97262235  0.63986620  0.86571679    -0.80410
O1372       O  0.80512144  0.62163573  0.87763775    -0.82180
O1373       O  0.92157050  0.69808235  0.97103856    -0.84930
C1374       C  0.97696504  0.61335907  0.87676076     0.95840
C1375       C  0.86747282  0.62794689  0.77554722     1.03280
O1376       O  0.88439306  0.65792564  0.88498309    -1.13910
O1377       O  0.84031473  0.71757808  0.87057446    -0.76340
O1378       O  0.89876488  0.71600944  0.83948035    -0.79830
O1379       O  0.94677151  0.60060789  0.89205852    -0.80520
C1380       C  0.86671430  0.72984136  0.85030505     0.94740
O1381       O  0.97471825  0.68861723  0.93297115    -0.78470
O1382       O  0.78211033  0.66791432  0.88015245    -0.83670
C1383       C  0.86958886  0.62954079  0.98236643     0.97370
C1384       C  0.77346971  0.64055491  0.87792047     1.03280
O1385       O  0.89517957  0.61641074  0.96133040    -0.79310
C1386       C  0.96561506  0.69495670  0.97321780     1.01580
Fe1387     Fe  0.54343431  0.67448420  0.64200010     1.65780
Fe1388     Fe  0.62060450  0.68374362  0.57895050     1.73250
Fe1389     Fe  0.59637448  0.61544121  0.61414054     1.54420
O1390       O  0.61495635  0.61252464  0.69100419    -0.83050
O1391       O  0.61949767  0.65485120  0.52718972    -0.81350
O1392       O  0.58565342  0.65398580  0.71353754    -0.85550
O1393       O  0.50036208  0.63989173  0.63340915    -0.80410
O1394       O  0.66781063  0.62163382  0.62136668    -0.82180
O1395       O  0.55138108  0.69814735  0.52803026    -0.84930
C1396       C  0.49597484  0.61339813  0.62227093     0.95840
C1397       C  0.60550621  0.62798162  0.72347022     1.03280
O1398       O  0.58855910  0.65795009  0.61402738    -1.13910
O1399       O  0.63275192  0.71756197  0.62855706    -0.76340
O1400       O  0.57415594  0.71606012  0.65944095    -0.79830
O1401       O  0.52612230  0.60066505  0.60688399    -0.80520
C1402       C  0.60625554  0.72986839  0.64866063     0.94740
O1403       O  0.49823122  0.68860199  0.56606309    -0.78470
O1404       O  0.69083204  0.66790780  0.61881487    -0.83670
C1405       C  0.60332328  0.62958937  0.51660503     0.97370
C1406       C  0.69946665  0.64054812  0.62107824     1.03280
O1407       O  0.57774993  0.61645306  0.53765458    -0.79310
C1408       C  0.50733615  0.69496870  0.52582923     1.01580
loop_ 
_geom_bond_atom_site_label_1 
_geom_bond_atom_site_label_2 
_geom_bond_distance 
_geom_bond_site_symmetry_2 
_ccdc_geom_bond_type 
Fe1          O17   2.163       .  S
Fe1           O7   1.985       .  S
Fe1          O14   2.086       .  S
Fe1           O6   2.156       .  S
Fe1          O12   1.934       .  S
Fe2           O5   1.966       .  S
Fe2           O9   2.112       .  S
Fe2          O13   2.031       .  S
Fe2          O18   2.078       .  S
Fe2          O12   1.992       .  S
Fe3          O21   2.027       .  S
Fe3           O8   2.050       .  S
Fe3          O15   2.107       .  S
Fe3           O4   2.041       .  S
Fe3          O12   1.960       .  S
O4           C11   1.270       .  A
O5           C19   1.244       .  A
O6           C11   1.310       .  A
O7           C10   1.248       .  A
O8           C20   1.273       .  A
O9           C22   1.280       .  A
C10          O15   1.266       .  A
C10          C85   1.474       .  S
C11          C54   1.493       .  S
O13          C16   1.256       .  A
O14          C16   1.264       .  A
C16         C462   1.473       .  S
O17          C22   1.297       .  A
O18          C20   1.275       .  A
C19          O21   1.271       .  A
C19         C240   1.407   1_554  S
C20         C781   1.474       .  S
C22         C220   1.536   1_554  S
Fe23         O39   2.162       .  S
Fe23         O29   1.985       .  S
Fe23         O36   2.086       .  S
Fe23         O28   2.156       .  S
Fe23         O34   1.934       .  S
Fe24         O27   1.966       .  S
Fe24         O31   2.112       .  S
Fe24         O35   2.031       .  S
Fe24         O40   2.078       .  S
Fe24         O34   1.992       .  S
Fe25         O43   2.027       .  S
Fe25         O30   2.050       .  S
Fe25         O37   2.107       .  S
Fe25         O26   2.042       .  S
Fe25         O34   1.960       .  S
O26          C33   1.271       .  A
O27          C41   1.244       .  A
O28          C33   1.310       .  A
O29          C32   1.248       .  A
O30          C42   1.273       .  A
O31          C44   1.280       .  A
C32          O37   1.266       .  A
C32          C63   1.474       .  S
C33          C76   1.493       .  S
O35          C38   1.256       .  A
O36          C38   1.264       .  A
C38         C484   1.473       .  S
O39          C44   1.297       .  A
O40          C42   1.275       .  A
C41          O43   1.271       .  A
C41         C262   1.407       .  S
C42         C759   1.474   1_455  S
C44         C198   1.536       .  S
Fe45         O61   2.086       .  S
Fe45         O51   2.160       .  S
Fe45         O58   2.164       .  S
Fe45         O50   1.988       .  S
Fe45         O56   1.937       .  S
Fe46         O49   2.078       .  S
Fe46         O53   2.021       .  S
Fe46         O57   2.089       .  S
Fe46         O62   1.960       .  S
Fe46         O56   1.994       .  S
Fe47         O65   2.052       .  S
Fe47         O52   2.030       .  S
Fe47         O59   2.032       .  S
Fe47         O48   2.106       .  S
Fe47         O56   1.963       .  S
O48          C55   1.267       .  A
O49          C63   1.279       .  A
O50          C55   1.251       .  A
O51          C54   1.307       .  A
O52          C64   1.270       .  A
O53          C66   1.257       .  A
C54          O59   1.267       .  A
C55         C746   1.474       .  S
O57          C60   1.275       .  A
O58          C60   1.298       .  A
C60         C962   1.525       .  S
O61          C66   1.265       .  A
O62          C64   1.242       .  A
C63          O65   1.275       .  A
C64         C195   1.407       .  S
C66         C148   1.473       .  S
Fe67         O83   2.086       .  S
Fe67         O73   2.160       .  S
Fe67         O80   2.165       .  S
Fe67         O72   1.988   1_455  S
Fe67         O78   1.937       .  S
Fe68         O71   2.078       .  S
Fe68         O75   2.022       .  S
Fe68         O79   2.089       .  S
Fe68         O84   1.961       .  S
Fe68         O78   1.994       .  S
Fe69         O87   2.052       .  S
Fe69         O74   2.030       .  S
Fe69         O81   2.032       .  S
Fe69         O70   2.107       .  S
Fe69         O78   1.963       .  S
O70          C77   1.267   1_455  A
O71          C85   1.279       .  A
O72          C77   1.251       .  A
O73          C76   1.307       .  A
O74          C86   1.270       .  A
O75          C88   1.257       .  A
C76          O81   1.267       .  A
C77         C724   1.474       .  S
O79          C82   1.275       .  A
O80          C82   1.298       .  A
C82         C940   1.525   1_454  S
O83          C88   1.265       .  A
O84          C86   1.242       .  A
C85          O87   1.275       .  A
C86         C217   1.407   1_554  S
C88         C170   1.473       .  S
Fe89        O105   2.086       .  S
Fe89         O95   2.160       .  S
Fe89        O102   2.164       .  S
Fe89         O94   1.988       .  S
Fe89        O100   1.937       .  S
Fe90         O93   2.078       .  S
Fe90         O97   2.021       .  S
Fe90        O101   2.089       .  S
Fe90        O106   1.960       .  S
Fe90        O100   1.994       .  S
Fe91        O109   2.052       .  S
Fe91         O96   2.030       .  S
Fe91        O103   2.032       .  S
Fe91         O92   2.106       .  S
Fe91        O100   1.963       .  S
O92          C99   1.267       .  A
O93         C107   1.279       .  A
O94          C99   1.251       .  A
O95          C98   1.307       .  A
O96         C108   1.270       .  A
O97         C110   1.257       .  A
C98         O103   1.267       .  A
C98         C143   1.493       .  S
C99         C174   1.474       .  S
O101        C104   1.275       .  A
O102        C104   1.298       .  A
C104        C302   1.525   1_554  S
O105        C110   1.265       .  A
O106        C108   1.242       .  A
C107        O109   1.275       .  A
C107        C868   1.474       .  S
C108        C327   1.407   1_554  S
C110        C368   1.473   1_545  S
Fe111       O127   2.086       .  S
Fe111       O117   2.160       .  S
Fe111       O124   2.165       .  S
Fe111       O116   1.988       .  S
Fe111       O122   1.937       .  S
Fe112       O115   2.078       .  S
Fe112       O119   2.022       .  S
Fe112       O123   2.089       .  S
Fe112       O128   1.961       .  S
Fe112       O122   1.994       .  S
Fe113       O131   2.052       .  S
Fe113       O118   2.030       .  S
Fe113       O125   2.032       .  S
Fe113       O114   2.107       .  S
Fe113       O122   1.963       .  S
O114        C121   1.267       .  A
O115        C129   1.279       .  A
O116        C121   1.251       .  A
O117        C120   1.307       .  A
O118        C130   1.270       .  A
O119        C132   1.257       .  A
C120        O125   1.267       .  A
C120        C165   1.493       .  S
C121        C152   1.474       .  S
O123        C126   1.275       .  A
O124        C126   1.298       .  A
C126        C280   1.525       .  S
O127        C132   1.265       .  A
O128        C130   1.242       .  A
C129        O131   1.275       .  A
C129        C846   1.474   1_455  S
C130        C349   1.407       .  S
C132        C390   1.473   1_545  S
Fe133       O149   2.163       .  S
Fe133       O139   1.985       .  S
Fe133       O146   2.086       .  S
Fe133       O138   2.156       .  S
Fe133       O144   1.934       .  S
Fe134       O137   1.966       .  S
Fe134       O141   2.112       .  S
Fe134       O145   2.031       .  S
Fe134       O150   2.078       .  S
Fe134       O144   1.992       .  S
Fe135       O153   2.027       .  S
Fe135       O140   2.050       .  S
Fe135       O147   2.107       .  S
Fe135       O136   2.041       .  S
Fe135       O144   1.960       .  S
O136        C143   1.270       .  A
O137        C151   1.244       .  A
O138        C143   1.310       .  A
O139        C142   1.248       .  A
O140        C152   1.273       .  A
O141        C154   1.280       .  A
C142        O147   1.266       .  A
C142        C833   1.474       .  S
O145        C148   1.256       .  A
O146        C148   1.264       .  A
O149        C154   1.297       .  A
O150        C152   1.275       .  A
C151        O153   1.271       .  A
C151        C284   1.407       .  S
C154       C1056   1.536       .  S
Fe155       O171   2.162   1_455  S
Fe155       O161   1.985       .  S
Fe155       O168   2.086       .  S
Fe155       O160   2.156       .  S
Fe155       O166   1.934       .  S
Fe156       O159   1.966       .  S
Fe156       O163   2.112       .  S
Fe156       O167   2.031       .  S
Fe156       O172   2.078       .  S
Fe156       O166   1.992       .  S
Fe157       O175   2.027       .  S
Fe157       O162   2.050       .  S
Fe157       O169   2.107       .  S
Fe157       O158   2.042       .  S
Fe157       O166   1.960       .  S
O158        C165   1.271       .  A
O159        C173   1.244       .  A
O160        C165   1.310       .  A
O161        C164   1.248   1_455  A
O162        C174   1.273       .  A
O163        C176   1.280       .  A
C164        O169   1.266   1_655  A
C164        C811   1.474       .  S
O167        C170   1.256       .  A
O168        C170   1.264       .  A
O171        C176   1.297   1_655  A
O172        C174   1.275       .  A
C173        O175   1.271       .  A
C173        C306   1.407   1_554  S
C176       C1034   1.536   1_454  S
Fe177       O193   2.163       .  S
Fe177       O183   1.985       .  S
Fe177       O190   2.086       .  S
Fe177       O182   2.156       .  S
Fe177       O188   1.934       .  S
Fe178       O181   1.966       .  S
Fe178       O185   2.112       .  S
Fe178       O189   2.031       .  S
Fe178       O194   2.078       .  S
Fe178       O188   1.992       .  S
Fe179       O197   2.027       .  S
Fe179       O184   2.050       .  S
Fe179       O191   2.107       .  S
Fe179       O180   2.041       .  S
Fe179       O188   1.960       .  S
O180        C187   1.270       .  A
O181        C195   1.244       .  A
O182        C187   1.310       .  A
O183        C186   1.248       .  A
O184        C196   1.273       .  A
O185        C198   1.280       .  A
C186        O191   1.266       .  A
C186        C261   1.474       .  S
C187        C230   1.493       .  S
O189        C192   1.256       .  A
O190        C192   1.264       .  A
C192        C638   1.473       .  S
O193        C198   1.297       .  A
O194        C196   1.275       .  A
C195        O197   1.271       .  A
C196        C957   1.474       .  S
Fe199       O215   2.162       .  S
Fe199       O205   1.985       .  S
Fe199       O212   2.086       .  S
Fe199       O204   2.156       .  S
Fe199       O210   1.934       .  S
Fe200       O203   1.966       .  S
Fe200       O207   2.112       .  S
Fe200       O211   2.031       .  S
Fe200       O216   2.078       .  S
Fe200       O210   1.992       .  S
Fe201       O219   2.027       .  S
Fe201       O206   2.050       .  S
Fe201       O213   2.107       .  S
Fe201       O202   2.042       .  S
Fe201       O210   1.960       .  S
O202        C209   1.271       .  A
O203        C217   1.244       .  A
O204        C209   1.310       .  A
O205        C208   1.248       .  A
O206        C218   1.273       .  A
O207        C220   1.280       .  A
C208        O213   1.266       .  A
C208        C239   1.474       .  S
C209        C252   1.493       .  S
O211        C214   1.256       .  A
O212        C214   1.264       .  A
C214        C660   1.473       .  S
O215        C220   1.297       .  A
O216        C218   1.275       .  A
C217        O219   1.271       .  A
C218        C935   1.474   1_455  S
Fe221       O237   2.086       .  S
Fe221       O227   2.160       .  S
Fe221       O234   2.164       .  S
Fe221       O226   1.988       .  S
Fe221       O232   1.937       .  S
Fe222       O225   2.078       .  S
Fe222       O229   2.021       .  S
Fe222       O233   2.089       .  S
Fe222       O238   1.960       .  S
Fe222       O232   1.994       .  S
Fe223       O241   2.052       .  S
Fe223       O228   2.030       .  S
Fe223       O235   2.032       .  S
Fe223       O224   2.106       .  S
Fe223       O232   1.963       .  S
O224        C231   1.267       .  A
O225        C239   1.279       .  A
O226        C231   1.251       .  A
O227        C230   1.307       .  A
O228        C240   1.270       .  A
O229        C242   1.257       .  A
C230        O235   1.267       .  A
C231        C922   1.474       .  S
O233        C236   1.275       .  A
O234        C236   1.298       .  A
C236        C786   1.525   1_556  S
O237        C242   1.265       .  A
O238        C240   1.242       .  A
C239        O241   1.275       .  A
C242        C324   1.473       .  S
Fe243       O259   2.086       .  S
Fe243       O249   2.160       .  S
Fe243       O256   2.165       .  S
Fe243       O248   1.988   1_455  S
Fe243       O254   1.937       .  S
Fe244       O247   2.078       .  S
Fe244       O251   2.022       .  S
Fe244       O255   2.089       .  S
Fe244       O260   1.961       .  S
Fe244       O254   1.994       .  S
Fe245       O263   2.052       .  S
Fe245       O250   2.030       .  S
Fe245       O257   2.032       .  S
Fe245       O246   2.107       .  S
Fe245       O254   1.963       .  S
O246        C253   1.267   1_455  A
O247        C261   1.279       .  A
O248        C253   1.251       .  A
O249        C252   1.307       .  A
O250        C262   1.270       .  A
O251        C264   1.257       .  A
C252        O257   1.267       .  A
C253        C900   1.474       .  S
O255        C258   1.275       .  A
O256        C258   1.298       .  A
C258        C764   1.525   1_455  S
O259        C264   1.265       .  A
O260        C262   1.242       .  A
C261        O263   1.275       .  A
C264        C346   1.473       .  S
Fe265       O281   2.086       .  S
Fe265       O271   2.160       .  S
Fe265       O278   2.164       .  S
Fe265       O270   1.988       .  S
Fe265       O276   1.937       .  S
Fe266       O269   2.078       .  S
Fe266       O273   2.021       .  S
Fe266       O277   2.089       .  S
Fe266       O282   1.960       .  S
Fe266       O276   1.994       .  S
Fe267       O285   2.052       .  S
Fe267       O272   2.030       .  S
Fe267       O279   2.032       .  S
Fe267       O268   2.106       .  S
Fe267       O276   1.963       .  S
O268        C275   1.267       .  A
O269        C283   1.279       .  A
O270        C275   1.251       .  A
O271        C274   1.307       .  A
O272        C284   1.270       .  A
O273        C286   1.257       .  A
C274        O279   1.267       .  A
C274        C319   1.493       .  S
C275        C350   1.474       .  S
O277        C280   1.275       .  A
O278        C280   1.298       .  A
O281        C286   1.265       .  A
O282        C284   1.242       .  A
C283        O285   1.275       .  A
C283       C1044   1.474       .  S
C286        C544   1.473   1_545  S
Fe287       O303   2.086       .  S
Fe287       O293   2.160       .  S
Fe287       O300   2.165       .  S
Fe287       O292   1.988       .  S
Fe287       O298   1.937       .  S
Fe288       O291   2.078       .  S
Fe288       O295   2.022       .  S
Fe288       O299   2.089       .  S
Fe288       O304   1.961       .  S
Fe288       O298   1.994       .  S
Fe289       O307   2.052       .  S
Fe289       O294   2.030       .  S
Fe289       O301   2.032       .  S
Fe289       O290   2.107       .  S
Fe289       O298   1.963       .  S
O290        C297   1.267       .  A
O291        C305   1.279       .  A
O292        C297   1.251       .  A
O293        C296   1.307       .  A
O294        C306   1.270       .  A
O295        C308   1.257       .  A
C296        O301   1.267       .  A
C296        C341   1.493       .  S
C297        C328   1.474       .  S
O299        C302   1.275       .  A
O300        C302   1.298       .  A
O303        C308   1.265       .  A
O304        C306   1.242       .  A
C305        O307   1.275       .  A
C305       C1022   1.474   1_455  S
C308        C566   1.473   1_545  S
Fe309       O325   2.163       .  S
Fe309       O315   1.985       .  S
Fe309       O322   2.086       .  S
Fe309       O314   2.156       .  S
Fe309       O320   1.934       .  S
Fe310       O313   1.966       .  S
Fe310       O317   2.112       .  S
Fe310       O321   2.031       .  S
Fe310       O326   2.078       .  S
Fe310       O320   1.992       .  S
Fe311       O329   2.027       .  S
Fe311       O316   2.050       .  S
Fe311       O323   2.107       .  S
Fe311       O312   2.041       .  S
Fe311       O320   1.960       .  S
O312        C319   1.270       .  A
O313        C327   1.244       .  A
O314        C319   1.310       .  A
O315        C318   1.248       .  A
O316        C328   1.273       .  A
O317        C330   1.280       .  A
C318        O323   1.266       .  A
C318       C1009   1.474       .  S
O321        C324   1.256       .  A
O322        C324   1.264       .  A
O325        C330   1.297       .  A
O326        C328   1.275       .  A
C327        O329   1.271       .  A
C330        C880   1.536   1_556  S
Fe331       O347   2.162   1_455  S
Fe331       O337   1.985       .  S
Fe331       O344   2.086       .  S
Fe331       O336   2.156       .  S
Fe331       O342   1.934       .  S
Fe332       O335   1.966       .  S
Fe332       O339   2.112       .  S
Fe332       O343   2.031       .  S
Fe332       O348   2.078       .  S
Fe332       O342   1.992       .  S
Fe333       O351   2.027       .  S
Fe333       O338   2.050       .  S
Fe333       O345   2.107       .  S
Fe333       O334   2.042       .  S
Fe333       O342   1.960       .  S
O334        C341   1.271       .  A
O335        C349   1.244       .  A
O336        C341   1.310       .  A
O337        C340   1.248   1_455  A
O338        C350   1.273       .  A
O339        C352   1.280       .  A
C340        O345   1.266   1_655  A
C340        C987   1.474       .  S
O343        C346   1.256       .  A
O344        C346   1.264       .  A
O347        C352   1.297   1_655  A
O348        C350   1.275       .  A
C349        O351   1.271       .  A
C352        C858   1.536   1_455  S
Fe353       O369   2.163       .  S
Fe353       O359   1.985       .  S
Fe353       O366   2.086       .  S
Fe353       O358   2.156       .  S
Fe353       O364   1.934       .  S
Fe354       O357   1.966       .  S
Fe354       O361   2.112       .  S
Fe354       O365   2.031       .  S
Fe354       O370   2.078       .  S
Fe354       O364   1.992       .  S
Fe355       O373   2.027       .  S
Fe355       O360   2.050       .  S
Fe355       O367   2.107       .  S
Fe355       O356   2.041       .  S
Fe355       O364   1.960       .  S
O356        C363   1.270       .  A
O357        C371   1.244       .  A
O358        C363   1.310       .  A
O359        C362   1.248       .  A
O360        C372   1.273       .  A
O361        C374   1.280       .  A
C362        O367   1.266       .  A
C362        C437   1.474       .  S
C363        C406   1.493       .  S
O365        C368   1.256       .  A
O366        C368   1.264       .  A
O369        C374   1.297       .  A
O370        C372   1.275       .  A
C371        O373   1.271       .  A
C371        C592   1.407   1_554  S
C372       C1133   1.474       .  S
C374        C572   1.536   1_554  S
Fe375       O391   2.162       .  S
Fe375       O381   1.985       .  S
Fe375       O388   2.086       .  S
Fe375       O380   2.156       .  S
Fe375       O386   1.934       .  S
Fe376       O379   1.966       .  S
Fe376       O383   2.112       .  S
Fe376       O387   2.031       .  S
Fe376       O392   2.078       .  S
Fe376       O386   1.992       .  S
Fe377       O395   2.027       .  S
Fe377       O382   2.050       .  S
Fe377       O389   2.107       .  S
Fe377       O378   2.042       .  S
Fe377       O386   1.960       .  S
O378        C385   1.271       .  A
O379        C393   1.244       .  A
O380        C385   1.310       .  A
O381        C384   1.248       .  A
O382        C394   1.273       .  A
O383        C396   1.280       .  A
C384        O389   1.266       .  A
C384        C415   1.474       .  S
C385        C428   1.493       .  S
O387        C390   1.256       .  A
O388        C390   1.264       .  A
O391        C396   1.297       .  A
O392        C394   1.275       .  A
C393        O395   1.271       .  A
C393        C614   1.407       .  S
C394       C1111   1.474   1_455  S
C396        C550   1.536       .  S
Fe397       O413   2.086       .  S
Fe397       O403   2.160       .  S
Fe397       O410   2.164       .  S
Fe397       O402   1.988       .  S
Fe397       O408   1.937       .  S
Fe398       O401   2.078       .  S
Fe398       O405   2.021       .  S
Fe398       O409   2.089       .  S
Fe398       O414   1.960       .  S
Fe398       O408   1.994       .  S
Fe399       O417   2.052       .  S
Fe399       O404   2.030       .  S
Fe399       O411   2.032       .  S
Fe399       O400   2.106       .  S
Fe399       O408   1.963       .  S
O400        C407   1.267       .  A
O401        C415   1.279       .  A
O402        C407   1.251       .  A
O403        C406   1.307       .  A
O404        C416   1.270       .  A
O405        C418   1.257       .  A
C406        O411   1.267       .  A
C407       C1098   1.474       .  S
O409        C412   1.275       .  A
O410        C412   1.298       .  A
C412       C1314   1.525       .  S
O413        C418   1.265       .  A
O414        C416   1.242       .  A
C415        O417   1.275       .  A
C416        C547   1.407       .  S
C418        C500   1.473       .  S
Fe419       O435   2.086       .  S
Fe419       O425   2.160       .  S
Fe419       O432   2.165       .  S
Fe419       O424   1.988   1_455  S
Fe419       O430   1.937       .  S
Fe420       O423   2.078       .  S
Fe420       O427   2.022       .  S
Fe420       O431   2.089       .  S
Fe420       O436   1.961       .  S
Fe420       O430   1.994       .  S
Fe421       O439   2.052       .  S
Fe421       O426   2.030       .  S
Fe421       O433   2.032       .  S
Fe421       O422   2.107       .  S
Fe421       O430   1.963       .  S
O422        C429   1.267   1_455  A
O423        C437   1.279       .  A
O424        C429   1.251       .  A
O425        C428   1.307       .  A
O426        C438   1.270       .  A
O427        C440   1.257       .  A
C428        O433   1.267       .  A
C429       C1076   1.474       .  S
O431        C434   1.275       .  A
O432        C434   1.298       .  A
C434       C1292   1.525   1_454  S
O435        C440   1.265       .  A
O436        C438   1.242       .  A
C437        O439   1.275       .  A
C438        C569   1.407   1_554  S
C440        C522   1.473       .  S
Fe441       O457   2.086       .  S
Fe441       O447   2.160       .  S
Fe441       O454   2.164       .  S
Fe441       O446   1.988       .  S
Fe441       O452   1.937       .  S
Fe442       O445   2.078       .  S
Fe442       O449   2.021       .  S
Fe442       O453   2.089       .  S
Fe442       O458   1.960       .  S
Fe442       O452   1.994       .  S
Fe443       O461   2.052       .  S
Fe443       O448   2.030       .  S
Fe443       O455   2.032       .  S
Fe443       O444   2.106       .  S
Fe443       O452   1.963       .  S
O444        C451   1.267       .  A
O445        C459   1.279       .  A
O446        C451   1.251       .  A
O447        C450   1.307       .  A
O448        C460   1.270       .  A
O449        C462   1.257       .  A
C450        O455   1.267       .  A
C450        C495   1.493       .  S
C451        C526   1.474       .  S
O453        C456   1.275       .  A
O454        C456   1.298       .  A
C456        C654   1.525   1_554  S
O457        C462   1.265       .  A
O458        C460   1.242       .  A
C459        O461   1.275       .  A
C459       C1220   1.474       .  S
C460        C679   1.407   1_554  S
Fe463       O479   2.086       .  S
Fe463       O469   2.160       .  S
Fe463       O476   2.165       .  S
Fe463       O468   1.988       .  S
Fe463       O474   1.937       .  S
Fe464       O467   2.078       .  S
Fe464       O471   2.022       .  S
Fe464       O475   2.089       .  S
Fe464       O480   1.961       .  S
Fe464       O474   1.994       .  S
Fe465       O483   2.052       .  S
Fe465       O470   2.030       .  S
Fe465       O477   2.032       .  S
Fe465       O466   2.107       .  S
Fe465       O474   1.963       .  S
O466        C473   1.267       .  A
O467        C481   1.279       .  A
O468        C473   1.251       .  A
O469        C472   1.307       .  A
O470        C482   1.270       .  A
O471        C484   1.257       .  A
C472        O477   1.267       .  A
C472        C517   1.493       .  S
C473        C504   1.474       .  S
O475        C478   1.275       .  A
O476        C478   1.298       .  A
C478        C632   1.525       .  S
O479        C484   1.265       .  A
O480        C482   1.242       .  A
C481        O483   1.275       .  A
C481       C1198   1.474   1_455  S
C482        C701   1.407       .  S
Fe485       O501   2.163       .  S
Fe485       O491   1.985       .  S
Fe485       O498   2.086       .  S
Fe485       O490   2.156       .  S
Fe485       O496   1.934       .  S
Fe486       O489   1.966       .  S
Fe486       O493   2.112       .  S
Fe486       O497   2.031       .  S
Fe486       O502   2.078       .  S
Fe486       O496   1.992       .  S
Fe487       O505   2.027       .  S
Fe487       O492   2.050       .  S
Fe487       O499   2.107       .  S
Fe487       O488   2.041       .  S
Fe487       O496   1.960       .  S
O488        C495   1.270       .  A
O489        C503   1.244       .  A
O490        C495   1.310       .  A
O491        C494   1.248       .  A
O492        C504   1.273       .  A
O493        C506   1.280       .  A
C494        O499   1.266       .  A
C494       C1185   1.474       .  S
O497        C500   1.256       .  A
O498        C500   1.264       .  A
O501        C506   1.297       .  A
O502        C504   1.275       .  A
C503        O505   1.271       .  A
C503        C636   1.407       .  S
C506       C1408   1.536       .  S
Fe507       O523   2.162   1_455  S
Fe507       O513   1.985       .  S
Fe507       O520   2.086       .  S
Fe507       O512   2.156       .  S
Fe507       O518   1.934       .  S
Fe508       O511   1.966       .  S
Fe508       O515   2.112       .  S
Fe508       O519   2.031       .  S
Fe508       O524   2.078       .  S
Fe508       O518   1.992       .  S
Fe509       O527   2.027       .  S
Fe509       O514   2.050       .  S
Fe509       O521   2.107       .  S
Fe509       O510   2.042       .  S
Fe509       O518   1.960       .  S
O510        C517   1.271       .  A
O511        C525   1.244       .  A
O512        C517   1.310       .  A
O513        C516   1.248   1_455  A
O514        C526   1.273       .  A
O515        C528   1.280       .  A
C516        O521   1.266   1_655  A
C516       C1163   1.474       .  S
O519        C522   1.256       .  A
O520        C522   1.264       .  A
O523        C528   1.297   1_655  A
O524        C526   1.275       .  A
C525        O527   1.271       .  A
C525        C658   1.407   1_554  S
C528       C1386   1.536   1_454  S
Fe529       O545   2.163       .  S
Fe529       O535   1.985       .  S
Fe529       O542   2.086       .  S
Fe529       O534   2.156       .  S
Fe529       O540   1.934       .  S
Fe530       O533   1.966       .  S
Fe530       O537   2.112       .  S
Fe530       O541   2.031       .  S
Fe530       O546   2.078       .  S
Fe530       O540   1.992       .  S
Fe531       O549   2.027       .  S
Fe531       O536   2.050       .  S
Fe531       O543   2.107       .  S
Fe531       O532   2.041       .  S
Fe531       O540   1.960       .  S
O532        C539   1.270       .  A
O533        C547   1.244       .  A
O534        C539   1.310       .  A
O535        C538   1.248       .  A
O536        C548   1.273       .  A
O537        C550   1.280       .  A
C538        O543   1.266       .  A
C538        C613   1.474       .  S
C539        C582   1.493       .  S
O541        C544   1.256       .  A
O542        C544   1.264       .  A
O545        C550   1.297       .  A
O546        C548   1.275       .  A
C547        O549   1.271       .  A
C548       C1309   1.474       .  S
Fe551       O567   2.162       .  S
Fe551       O557   1.985       .  S
Fe551       O564   2.086       .  S
Fe551       O556   2.156       .  S
Fe551       O562   1.934       .  S
Fe552       O555   1.966       .  S
Fe552       O559   2.112       .  S
Fe552       O563   2.031       .  S
Fe552       O568   2.078       .  S
Fe552       O562   1.992       .  S
Fe553       O571   2.027       .  S
Fe553       O558   2.050       .  S
Fe553       O565   2.107       .  S
Fe553       O554   2.042       .  S
Fe553       O562   1.960       .  S
O554        C561   1.271       .  A
O555        C569   1.244       .  A
O556        C561   1.310       .  A
O557        C560   1.248       .  A
O558        C570   1.273       .  A
O559        C572   1.280       .  A
C560        O565   1.266       .  A
C560        C591   1.474       .  S
C561        C604   1.493       .  S
O563        C566   1.256       .  A
O564        C566   1.264       .  A
O567        C572   1.297       .  A
O568        C570   1.275       .  A
C569        O571   1.271       .  A
C570       C1287   1.474   1_455  S
Fe573       O589   2.086       .  S
Fe573       O579   2.160       .  S
Fe573       O586   2.164       .  S
Fe573       O578   1.988       .  S
Fe573       O584   1.937       .  S
Fe574       O577   2.078       .  S
Fe574       O581   2.021       .  S
Fe574       O585   2.089       .  S
Fe574       O590   1.960       .  S
Fe574       O584   1.994       .  S
Fe575       O593   2.052       .  S
Fe575       O580   2.030       .  S
Fe575       O587   2.032       .  S
Fe575       O576   2.106       .  S
Fe575       O584   1.963       .  S
O576        C583   1.267       .  A
O577        C591   1.279       .  A
O578        C583   1.251       .  A
O579        C582   1.307       .  A
O580        C592   1.270       .  A
O581        C594   1.257       .  A
C582        O587   1.267       .  A
C583       C1274   1.474       .  S
O585        C588   1.275       .  A
O586        C588   1.298       .  A
C588       C1138   1.525   1_556  S
O589        C594   1.265       .  A
O590        C592   1.242       .  A
C591        O593   1.275       .  A
C594        C676   1.473       .  S
Fe595       O611   2.086       .  S
Fe595       O601   2.160       .  S
Fe595       O608   2.165       .  S
Fe595       O600   1.988   1_455  S
Fe595       O606   1.937       .  S
Fe596       O599   2.078       .  S
Fe596       O603   2.022       .  S
Fe596       O607   2.089       .  S
Fe596       O612   1.961       .  S
Fe596       O606   1.994       .  S
Fe597       O615   2.052       .  S
Fe597       O602   2.030       .  S
Fe597       O609   2.032       .  S
Fe597       O598   2.107       .  S
Fe597       O606   1.963       .  S
O598        C605   1.267   1_455  A
O599        C613   1.279       .  A
O600        C605   1.251       .  A
O601        C604   1.307       .  A
O602        C614   1.270       .  A
O603        C616   1.257       .  A
C604        O609   1.267       .  A
C605       C1252   1.474       .  S
O607        C610   1.275       .  A
O608        C610   1.298       .  A
C610       C1116   1.525   1_455  S
O611        C616   1.265       .  A
O612        C614   1.242       .  A
C613        O615   1.275       .  A
C616        C698   1.473       .  S
Fe617       O633   2.086       .  S
Fe617       O623   2.160       .  S
Fe617       O630   2.164       .  S
Fe617       O622   1.988       .  S
Fe617       O628   1.937       .  S
Fe618       O621   2.078       .  S
Fe618       O625   2.021       .  S
Fe618       O629   2.089       .  S
Fe618       O634   1.960       .  S
Fe618       O628   1.994       .  S
Fe619       O637   2.052       .  S
Fe619       O624   2.030       .  S
Fe619       O631   2.032       .  S
Fe619       O620   2.106       .  S
Fe619       O628   1.963       .  S
O620        C627   1.267       .  A
O621        C635   1.279       .  A
O622        C627   1.251       .  A
O623        C626   1.307       .  A
O624        C636   1.270       .  A
O625        C638   1.257       .  A
C626        O631   1.267       .  A
C626        C671   1.493       .  S
C627        C702   1.474       .  S
O629        C632   1.275       .  A
O630        C632   1.298       .  A
O633        C638   1.265       .  A
O634        C636   1.242       .  A
C635        O637   1.275       .  A
C635       C1396   1.474       .  S
Fe639       O655   2.086       .  S
Fe639       O645   2.160       .  S
Fe639       O652   2.165       .  S
Fe639       O644   1.988       .  S
Fe639       O650   1.937       .  S
Fe640       O643   2.078       .  S
Fe640       O647   2.022       .  S
Fe640       O651   2.089       .  S
Fe640       O656   1.961       .  S
Fe640       O650   1.994       .  S
Fe641       O659   2.052       .  S
Fe641       O646   2.030       .  S
Fe641       O653   2.032       .  S
Fe641       O642   2.107       .  S
Fe641       O650   1.963       .  S
O642        C649   1.267       .  A
O643        C657   1.279       .  A
O644        C649   1.251       .  A
O645        C648   1.307       .  A
O646        C658   1.270       .  A
O647        C660   1.257       .  A
C648        O653   1.267       .  A
C648        C693   1.493       .  S
C649        C680   1.474       .  S
O651        C654   1.275       .  A
O652        C654   1.298       .  A
O655        C660   1.265       .  A
O656        C658   1.242       .  A
C657        O659   1.275       .  A
C657       C1374   1.474   1_455  S
Fe661       O677   2.163       .  S
Fe661       O667   1.985       .  S
Fe661       O674   2.086       .  S
Fe661       O666   2.156       .  S
Fe661       O672   1.934       .  S
Fe662       O665   1.966       .  S
Fe662       O669   2.112       .  S
Fe662       O673   2.031       .  S
Fe662       O678   2.078       .  S
Fe662       O672   1.992       .  S
Fe663       O681   2.027       .  S
Fe663       O668   2.050       .  S
Fe663       O675   2.107       .  S
Fe663       O664   2.041       .  S
Fe663       O672   1.960       .  S
O664        C671   1.270       .  A
O665        C679   1.244       .  A
O666        C671   1.310       .  A
O667        C670   1.248       .  A
O668        C680   1.273       .  A
O669        C682   1.280       .  A
C670        O675   1.266       .  A
C670       C1361   1.474       .  S
O673        C676   1.256       .  A
O674        C676   1.264       .  A
O677        C682   1.297       .  A
O678        C680   1.275       .  A
C679        O681   1.271       .  A
C682       C1232   1.536   1_556  S
Fe683       O699   2.162   1_455  S
Fe683       O689   1.985       .  S
Fe683       O696   2.086       .  S
Fe683       O688   2.156       .  S
Fe683       O694   1.934       .  S
Fe684       O687   1.966       .  S
Fe684       O691   2.112       .  S
Fe684       O695   2.031       .  S
Fe684       O700   2.078       .  S
Fe684       O694   1.992       .  S
Fe685       O703   2.027       .  S
Fe685       O690   2.050       .  S
Fe685       O697   2.107       .  S
Fe685       O686   2.042       .  S
Fe685       O694   1.960       .  S
O686        C693   1.271       .  A
O687        C701   1.244       .  A
O688        C693   1.310       .  A
O689        C692   1.248   1_455  A
O690        C702   1.273       .  A
O691        C704   1.280       .  A
C692        O697   1.266   1_655  A
C692       C1339   1.474       .  S
O695        C698   1.256       .  A
O696        C698   1.264       .  A
O699        C704   1.297   1_655  A
O700        C702   1.275       .  A
C701        O703   1.271       .  A
C704       C1210   1.536   1_455  S
Fe705       O721   2.163       .  S
Fe705       O711   1.985       .  S
Fe705       O718   2.086       .  S
Fe705       O710   2.156       .  S
Fe705       O716   1.934       .  S
Fe706       O709   1.966       .  S
Fe706       O713   2.112       .  S
Fe706       O717   2.031       .  S
Fe706       O722   2.078       .  S
Fe706       O716   1.992       .  S
Fe707       O725   2.027       .  S
Fe707       O712   2.050       .  S
Fe707       O719   2.107       .  S
Fe707       O708   2.041       .  S
Fe707       O716   1.960       .  S
O708        C715   1.270       .  A
O709        C723   1.244       .  A
O710        C715   1.310       .  A
O711        C714   1.248       .  A
O712        C724   1.273       .  A
O713        C726   1.280       .  A
C714        O719   1.266       .  A
C714        C789   1.474       .  S
C715        C758   1.493       .  S
O717        C720   1.256       .  A
O718        C720   1.264       .  A
C720       C1166   1.473       .  S
O721        C726   1.297       .  A
O722        C724   1.275       .  A
C723        O725   1.271       .  A
C723        C944   1.407   1_554  S
C726        C924   1.536   1_554  S
Fe727       O743   2.162       .  S
Fe727       O733   1.985       .  S
Fe727       O740   2.086       .  S
Fe727       O732   2.156       .  S
Fe727       O738   1.934       .  S
Fe728       O731   1.966       .  S
Fe728       O735   2.112       .  S
Fe728       O739   2.031       .  S
Fe728       O744   2.078       .  S
Fe728       O738   1.992       .  S
Fe729       O747   2.027       .  S
Fe729       O734   2.050       .  S
Fe729       O741   2.107       .  S
Fe729       O730   2.042       .  S
Fe729       O738   1.960       .  S
O730        C737   1.271       .  A
O731        C745   1.244       .  A
O732        C737   1.310       .  A
O733        C736   1.248       .  A
O734        C746   1.273       .  A
O735        C748   1.280       .  A
C736        O741   1.266       .  A
C736        C767   1.474       .  S
C737        C780   1.493       .  S
O739        C742   1.256       .  A
O740        C742   1.264       .  A
C742       C1188   1.473       .  S
O743        C748   1.297       .  A
O744        C746   1.275       .  A
C745        O747   1.271       .  A
C745        C966   1.407       .  S
C748        C902   1.536       .  S
Fe749       O765   2.086       .  S
Fe749       O755   2.160       .  S
Fe749       O762   2.164       .  S
Fe749       O754   1.988       .  S
Fe749       O760   1.937       .  S
Fe750       O753   2.078       .  S
Fe750       O757   2.021       .  S
Fe750       O761   2.089       .  S
Fe750       O766   1.960       .  S
Fe750       O760   1.994       .  S
Fe751       O769   2.052       .  S
Fe751       O756   2.030       .  S
Fe751       O763   2.032       .  S
Fe751       O752   2.106       .  S
Fe751       O760   1.963       .  S
O752        C759   1.267       .  A
O753        C767   1.279       .  A
O754        C759   1.251       .  A
O755        C758   1.307       .  A
O756        C768   1.270       .  A
O757        C770   1.257       .  A
C758        O763   1.267       .  A
O761        C764   1.275       .  A
O762        C764   1.298       .  A
O765        C770   1.265       .  A
O766        C768   1.242       .  A
C767        O769   1.275       .  A
C768        C899   1.407       .  S
C770        C852   1.473       .  S
Fe771       O787   2.086       .  S
Fe771       O777   2.160       .  S
Fe771       O784   2.165       .  S
Fe771       O776   1.988       .  S
Fe771       O782   1.937       .  S
Fe772       O775   2.078       .  S
Fe772       O779   2.022       .  S
Fe772       O783   2.089       .  S
Fe772       O788   1.961       .  S
Fe772       O782   1.994       .  S
Fe773       O791   2.052       .  S
Fe773       O778   2.030       .  S
Fe773       O785   2.032       .  S
Fe773       O774   2.107       .  S
Fe773       O782   1.963       .  S
O774        C781   1.267       .  A
O775        C789   1.279       .  A
O776        C781   1.251       .  A
O777        C780   1.307       .  A
O778        C790   1.270       .  A
O779        C792   1.257       .  A
C780        O785   1.267       .  A
O783        C786   1.275       .  A
O784        C786   1.298       .  A
O787        C792   1.265       .  A
O788        C790   1.242       .  A
C789        O791   1.275       .  A
C790        C921   1.407   1_554  S
C792        C874   1.473       .  S
Fe793       O809   2.086       .  S
Fe793       O799   2.160       .  S
Fe793       O806   2.164       .  S
Fe793       O798   1.988       .  S
Fe793       O804   1.937       .  S
Fe794       O797   2.078       .  S
Fe794       O801   2.021       .  S
Fe794       O805   2.089       .  S
Fe794       O810   1.960       .  S
Fe794       O804   1.994       .  S
Fe795       O813   2.052       .  S
Fe795       O800   2.030       .  S
Fe795       O807   2.032       .  S
Fe795       O796   2.106       .  S
Fe795       O804   1.963       .  S
O796        C803   1.267       .  A
O797        C811   1.279       .  A
O798        C803   1.251       .  A
O799        C802   1.307       .  A
O800        C812   1.270       .  A
O801        C814   1.257       .  A
C802        O807   1.267       .  A
C802        C847   1.493       .  S
C803        C878   1.474       .  S
O805        C808   1.275       .  A
O806        C808   1.298       .  A
C808       C1006   1.525   1_554  S
O809        C814   1.265       .  A
O810        C812   1.242       .  A
C811        O813   1.275       .  A
C812       C1031   1.407   1_554  S
C814       C1072   1.473   1_545  S
Fe815       O831   2.086       .  S
Fe815       O821   2.160       .  S
Fe815       O828   2.165       .  S
Fe815       O820   1.988       .  S
Fe815       O826   1.937       .  S
Fe816       O819   2.078       .  S
Fe816       O823   2.022       .  S
Fe816       O827   2.089       .  S
Fe816       O832   1.961       .  S
Fe816       O826   1.994       .  S
Fe817       O835   2.052       .  S
Fe817       O822   2.030       .  S
Fe817       O829   2.032       .  S
Fe817       O818   2.107       .  S
Fe817       O826   1.963       .  S
O818        C825   1.267       .  A
O819        C833   1.279       .  A
O820        C825   1.251       .  A
O821        C824   1.307       .  A
O822        C834   1.270       .  A
O823        C836   1.257       .  A
C824        O829   1.267       .  A
C824        C869   1.493       .  S
C825        C856   1.474       .  S
O827        C830   1.275       .  A
O828        C830   1.298       .  A
C830        C984   1.525       .  S
O831        C836   1.265       .  A
O832        C834   1.242       .  A
C833        O835   1.275       .  A
C834       C1053   1.407       .  S
C836       C1094   1.473   1_545  S
Fe837       O853   2.163       .  S
Fe837       O843   1.985       .  S
Fe837       O850   2.086       .  S
Fe837       O842   2.156       .  S
Fe837       O848   1.934       .  S
Fe838       O841   1.966       .  S
Fe838       O845   2.112       .  S
Fe838       O849   2.031       .  S
Fe838       O854   2.078       .  S
Fe838       O848   1.992       .  S
Fe839       O857   2.027       .  S
Fe839       O844   2.050       .  S
Fe839       O851   2.107       .  S
Fe839       O840   2.041       .  S
Fe839       O848   1.960       .  S
O840        C847   1.270       .  A
O841        C855   1.244       .  A
O842        C847   1.310       .  A
O843        C846   1.248       .  A
O844        C856   1.273       .  A
O845        C858   1.280       .  A
C846        O851   1.266       .  A
O849        C852   1.256       .  A
O850        C852   1.264       .  A
O853        C858   1.297       .  A
O854        C856   1.275       .  A
C855        O857   1.271       .  A
C855        C988   1.407       .  S
Fe859       O875   2.162       .  S
Fe859       O865   1.985       .  S
Fe859       O872   2.086       .  S
Fe859       O864   2.156       .  S
Fe859       O870   1.934       .  S
Fe860       O863   1.966       .  S
Fe860       O867   2.112       .  S
Fe860       O871   2.031       .  S
Fe860       O876   2.078       .  S
Fe860       O870   1.992       .  S
Fe861       O879   2.027       .  S
Fe861       O866   2.050       .  S
Fe861       O873   2.107       .  S
Fe861       O862   2.042       .  S
Fe861       O870   1.960       .  S
O862        C869   1.271       .  A
O863        C877   1.244       .  A
O864        C869   1.310       .  A
O865        C868   1.248       .  A
O866        C878   1.273       .  A
O867        C880   1.280       .  A
C868        O873   1.266       .  A
O871        C874   1.256       .  A
O872        C874   1.264       .  A
O875        C880   1.297       .  A
O876        C878   1.275       .  A
C877        O879   1.271       .  A
C877       C1010   1.407   1_554  S
Fe881       O897   2.163       .  S
Fe881       O887   1.985       .  S
Fe881       O894   2.086       .  S
Fe881       O886   2.156       .  S
Fe881       O892   1.934       .  S
Fe882       O885   1.966       .  S
Fe882       O889   2.112       .  S
Fe882       O893   2.031       .  S
Fe882       O898   2.078       .  S
Fe882       O892   1.992       .  S
Fe883       O901   2.027       .  S
Fe883       O888   2.050       .  S
Fe883       O895   2.107       .  S
Fe883       O884   2.041       .  S
Fe883       O892   1.960       .  S
O884        C891   1.270       .  A
O885        C899   1.244       .  A
O886        C891   1.310       .  A
O887        C890   1.248       .  A
O888        C900   1.273       .  A
O889        C902   1.280       .  A
C890        O895   1.266       .  A
C890        C965   1.474       .  S
C891        C934   1.493       .  S
O893        C896   1.256       .  A
O894        C896   1.264       .  A
C896       C1342   1.473       .  S
O897        C902   1.297       .  A
O898        C900   1.275       .  A
C899        O901   1.271       .  A
Fe903       O919   2.162       .  S
Fe903       O909   1.985       .  S
Fe903       O916   2.086       .  S
Fe903       O908   2.156       .  S
Fe903       O914   1.934       .  S
Fe904       O907   1.966       .  S
Fe904       O911   2.112       .  S
Fe904       O915   2.031       .  S
Fe904       O920   2.078       .  S
Fe904       O914   1.992       .  S
Fe905       O923   2.027       .  S
Fe905       O910   2.050       .  S
Fe905       O917   2.107       .  S
Fe905       O906   2.042       .  S
Fe905       O914   1.960       .  S
O906        C913   1.271       .  A
O907        C921   1.244       .  A
O908        C913   1.310       .  A
O909        C912   1.248       .  A
O910        C922   1.273       .  A
O911        C924   1.280       .  A
C912        O917   1.266       .  A
C912        C943   1.474       .  S
C913        C956   1.493       .  S
O915        C918   1.256       .  A
O916        C918   1.264       .  A
C918       C1364   1.473       .  S
O919        C924   1.297       .  A
O920        C922   1.275       .  A
C921        O923   1.271       .  A
Fe925       O941   2.086       .  S
Fe925       O931   2.160       .  S
Fe925       O938   2.164       .  S
Fe925       O930   1.988       .  S
Fe925       O936   1.937       .  S
Fe926       O929   2.078       .  S
Fe926       O933   2.021       .  S
Fe926       O937   2.089       .  S
Fe926       O942   1.960       .  S
Fe926       O936   1.994       .  S
Fe927       O945   2.052       .  S
Fe927       O932   2.030       .  S
Fe927       O939   2.032       .  S
Fe927       O928   2.106       .  S
Fe927       O936   1.963       .  S
O928        C935   1.267       .  A
O929        C943   1.279       .  A
O930        C935   1.251       .  A
O931        C934   1.307       .  A
O932        C944   1.270       .  A
O933        C946   1.257       .  A
C934        O939   1.267       .  A
O937        C940   1.275       .  A
O938        C940   1.298       .  A
O941        C946   1.265       .  A
O942        C944   1.242       .  A
C943        O945   1.275       .  A
C946       C1028   1.473       .  S
Fe947       O963   2.086       .  S
Fe947       O953   2.160       .  S
Fe947       O960   2.165       .  S
Fe947       O952   1.988       .  S
Fe947       O958   1.937       .  S
Fe948       O951   2.078       .  S
Fe948       O955   2.022       .  S
Fe948       O959   2.089       .  S
Fe948       O964   1.961       .  S
Fe948       O958   1.994       .  S
Fe949       O967   2.052       .  S
Fe949       O954   2.030       .  S
Fe949       O961   2.032       .  S
Fe949       O950   2.107       .  S
Fe949       O958   1.963       .  S
O950        C957   1.267       .  A
O951        C965   1.279       .  A
O952        C957   1.251       .  A
O953        C956   1.307       .  A
O954        C966   1.270       .  A
O955        C968   1.257       .  A
C956        O961   1.267       .  A
O959        C962   1.275       .  A
O960        C962   1.298       .  A
O963        C968   1.265       .  A
O964        C966   1.242       .  A
C965        O967   1.275       .  A
C968       C1050   1.473       .  S
Fe969       O985   2.086       .  S
Fe969       O975   2.160       .  S
Fe969       O982   2.164       .  S
Fe969       O974   1.988       .  S
Fe969       O980   1.937       .  S
Fe970       O973   2.078       .  S
Fe970       O977   2.021       .  S
Fe970       O981   2.089       .  S
Fe970       O986   1.960       .  S
Fe970       O980   1.994       .  S
Fe971       O989   2.052       .  S
Fe971       O976   2.030       .  S
Fe971       O983   2.032       .  S
Fe971       O972   2.106       .  S
Fe971       O980   1.963       .  S
O972        C979   1.267       .  A
O973        C987   1.279       .  A
O974        C979   1.251       .  A
O975        C978   1.307       .  A
O976        C988   1.270       .  A
O977        C990   1.257       .  A
C978        O983   1.267       .  A
C978       C1023   1.493       .  S
C979       C1054   1.474       .  S
O981        C984   1.275       .  A
O982        C984   1.298       .  A
O985        C990   1.265       .  A
O986        C988   1.242       .  A
C987        O989   1.275       .  A
C990       C1248   1.473   1_545  S
Fe991      O1007   2.086       .  S
Fe991       O997   2.160       .  S
Fe991      O1004   2.165       .  S
Fe991       O996   1.988       .  S
Fe991      O1002   1.937       .  S
Fe992       O995   2.078       .  S
Fe992       O999   2.022       .  S
Fe992      O1003   2.089       .  S
Fe992      O1008   1.961       .  S
Fe992      O1002   1.994       .  S
Fe993      O1011   2.052       .  S
Fe993       O998   2.030       .  S
Fe993      O1005   2.032       .  S
Fe993       O994   2.107       .  S
Fe993      O1002   1.963       .  S
O994       C1001   1.267       .  A
O995       C1009   1.279       .  A
O996       C1001   1.251       .  A
O997       C1000   1.307       .  A
O998       C1010   1.270       .  A
O999       C1012   1.257       .  A
C1000      O1005   1.267       .  A
C1000      C1045   1.493       .  S
C1001      C1032   1.474       .  S
O1003      C1006   1.275       .  A
O1004      C1006   1.298       .  A
O1007      C1012   1.265       .  A
O1008      C1010   1.242       .  A
C1009      O1011   1.275       .  A
C1012      C1270   1.473   1_545  S
Fe1013     O1029   2.163       .  S
Fe1013     O1019   1.985       .  S
Fe1013     O1026   2.086       .  S
Fe1013     O1018   2.156       .  S
Fe1013     O1024   1.934       .  S
Fe1014     O1017   1.966       .  S
Fe1014     O1021   2.112       .  S
Fe1014     O1025   2.031       .  S
Fe1014     O1030   2.078       .  S
Fe1014     O1024   1.992       .  S
Fe1015     O1033   2.027       .  S
Fe1015     O1020   2.050       .  S
Fe1015     O1027   2.107       .  S
Fe1015     O1016   2.041       .  S
Fe1015     O1024   1.960       .  S
O1016      C1023   1.270       .  A
O1017      C1031   1.244       .  A
O1018      C1023   1.310       .  A
O1019      C1022   1.248       .  A
O1020      C1032   1.273       .  A
O1021      C1034   1.280       .  A
C1022      O1027   1.266       .  A
O1025      C1028   1.256       .  A
O1026      C1028   1.264       .  A
O1029      C1034   1.297       .  A
O1030      C1032   1.275       .  A
C1031      O1033   1.271       .  A
Fe1035     O1051   2.162       .  S
Fe1035     O1041   1.985       .  S
Fe1035     O1048   2.086       .  S
Fe1035     O1040   2.156       .  S
Fe1035     O1046   1.934       .  S
Fe1036     O1039   1.966       .  S
Fe1036     O1043   2.112       .  S
Fe1036     O1047   2.031       .  S
Fe1036     O1052   2.078       .  S
Fe1036     O1046   1.992       .  S
Fe1037     O1055   2.027       .  S
Fe1037     O1042   2.050       .  S
Fe1037     O1049   2.107       .  S
Fe1037     O1038   2.042       .  S
Fe1037     O1046   1.960       .  S
O1038      C1045   1.271       .  A
O1039      C1053   1.244       .  A
O1040      C1045   1.310       .  A
O1041      C1044   1.248       .  A
O1042      C1054   1.273       .  A
O1043      C1056   1.280       .  A
C1044      O1049   1.266       .  A
O1047      C1050   1.256       .  A
O1048      C1050   1.264       .  A
O1051      C1056   1.297       .  A
O1052      C1054   1.275       .  A
C1053      O1055   1.271       .  A
Fe1057     O1073   2.163       .  S
Fe1057     O1063   1.985       .  S
Fe1057     O1070   2.086       .  S
Fe1057     O1062   2.156       .  S
Fe1057     O1068   1.934       .  S
Fe1058     O1061   1.966       .  S
Fe1058     O1065   2.112       .  S
Fe1058     O1069   2.031       .  S
Fe1058     O1074   2.078       .  S
Fe1058     O1068   1.992       .  S
Fe1059     O1077   2.027       .  S
Fe1059     O1064   2.050       .  S
Fe1059     O1071   2.107       .  S
Fe1059     O1060   2.041       .  S
Fe1059     O1068   1.960       .  S
O1060      C1067   1.270       .  A
O1061      C1075   1.244       .  A
O1062      C1067   1.310       .  A
O1063      C1066   1.248       .  A
O1064      C1076   1.273       .  A
O1065      C1078   1.280       .  A
C1066      O1071   1.266       .  A
C1066      C1141   1.474       .  S
C1067      C1110   1.493       .  S
O1069      C1072   1.256       .  A
O1070      C1072   1.264       .  A
O1073      C1078   1.297       .  A
O1074      C1076   1.275       .  A
C1075      O1077   1.271       .  A
C1075      C1296   1.407   1_554  S
C1078      C1276   1.536   1_554  S
Fe1079     O1095   2.162       .  S
Fe1079     O1085   1.985       .  S
Fe1079     O1092   2.086       .  S
Fe1079     O1084   2.156       .  S
Fe1079     O1090   1.934       .  S
Fe1080     O1083   1.966       .  S
Fe1080     O1087   2.112       .  S
Fe1080     O1091   2.031       .  S
Fe1080     O1096   2.078       .  S
Fe1080     O1090   1.992       .  S
Fe1081     O1099   2.027       .  S
Fe1081     O1086   2.050       .  S
Fe1081     O1093   2.107       .  S
Fe1081     O1082   2.042       .  S
Fe1081     O1090   1.960       .  S
O1082      C1089   1.271       .  A
O1083      C1097   1.244       .  A
O1084      C1089   1.310       .  A
O1085      C1088   1.248       .  A
O1086      C1098   1.273       .  A
O1087      C1100   1.280       .  A
C1088      O1093   1.266       .  A
C1088      C1119   1.474       .  S
C1089      C1132   1.493       .  S
O1091      C1094   1.256       .  A
O1092      C1094   1.264       .  A
O1095      C1100   1.297       .  A
O1096      C1098   1.275       .  A
C1097      O1099   1.271       .  A
C1097      C1318   1.407       .  S
C1100      C1254   1.536       .  S
Fe1101     O1117   2.086       .  S
Fe1101     O1107   2.160       .  S
Fe1101     O1114   2.164       .  S
Fe1101     O1106   1.988       .  S
Fe1101     O1112   1.937       .  S
Fe1102     O1105   2.078       .  S
Fe1102     O1109   2.021       .  S
Fe1102     O1113   2.089       .  S
Fe1102     O1118   1.960       .  S
Fe1102     O1112   1.994       .  S
Fe1103     O1121   2.052       .  S
Fe1103     O1108   2.030       .  S
Fe1103     O1115   2.032       .  S
Fe1103     O1104   2.106       .  S
Fe1103     O1112   1.963       .  S
O1104      C1111   1.267       .  A
O1105      C1119   1.279       .  A
O1106      C1111   1.251       .  A
O1107      C1110   1.307       .  A
O1108      C1120   1.270       .  A
O1109      C1122   1.257       .  A
C1110      O1115   1.267       .  A
O1113      C1116   1.275       .  A
O1114      C1116   1.298       .  A
O1117      C1122   1.265       .  A
O1118      C1120   1.242       .  A
C1119      O1121   1.275       .  A
C1120      C1251   1.407       .  S
C1122      C1204   1.473       .  S
Fe1123     O1139   2.086       .  S
Fe1123     O1129   2.160       .  S
Fe1123     O1136   2.165       .  S
Fe1123     O1128   1.988       .  S
Fe1123     O1134   1.937       .  S
Fe1124     O1127   2.078       .  S
Fe1124     O1131   2.022       .  S
Fe1124     O1135   2.089       .  S
Fe1124     O1140   1.961       .  S
Fe1124     O1134   1.994       .  S
Fe1125     O1143   2.052       .  S
Fe1125     O1130   2.030       .  S
Fe1125     O1137   2.032       .  S
Fe1125     O1126   2.107       .  S
Fe1125     O1134   1.963       .  S
O1126      C1133   1.267       .  A
O1127      C1141   1.279       .  A
O1128      C1133   1.251       .  A
O1129      C1132   1.307       .  A
O1130      C1142   1.270       .  A
O1131      C1144   1.257       .  A
C1132      O1137   1.267       .  A
O1135      C1138   1.275       .  A
O1136      C1138   1.298       .  A
O1139      C1144   1.265       .  A
O1140      C1142   1.242       .  A
C1141      O1143   1.275       .  A
C1142      C1273   1.407   1_554  S
C1144      C1226   1.473       .  S
Fe1145     O1161   2.086       .  S
Fe1145     O1151   2.160       .  S
Fe1145     O1158   2.164       .  S
Fe1145     O1150   1.988       .  S
Fe1145     O1156   1.937       .  S
Fe1146     O1149   2.078       .  S
Fe1146     O1153   2.021       .  S
Fe1146     O1157   2.089       .  S
Fe1146     O1162   1.960       .  S
Fe1146     O1156   1.994       .  S
Fe1147     O1165   2.052       .  S
Fe1147     O1152   2.030       .  S
Fe1147     O1159   2.032       .  S
Fe1147     O1148   2.106       .  S
Fe1147     O1156   1.963       .  S
O1148      C1155   1.267       .  A
O1149      C1163   1.279       .  A
O1150      C1155   1.251       .  A
O1151      C1154   1.307       .  A
O1152      C1164   1.270       .  A
O1153      C1166   1.257       .  A
C1154      O1159   1.267       .  A
C1154      C1199   1.493       .  S
C1155      C1230   1.474       .  S
O1157      C1160   1.275       .  A
O1158      C1160   1.298       .  A
C1160      C1358   1.525   1_554  S
O1161      C1166   1.265       .  A
O1162      C1164   1.242       .  A
C1163      O1165   1.275       .  A
C1164      C1383   1.407   1_554  S
Fe1167     O1183   2.086       .  S
Fe1167     O1173   2.160       .  S
Fe1167     O1180   2.165       .  S
Fe1167     O1172   1.988       .  S
Fe1167     O1178   1.937       .  S
Fe1168     O1171   2.078       .  S
Fe1168     O1175   2.022       .  S
Fe1168     O1179   2.089       .  S
Fe1168     O1184   1.961       .  S
Fe1168     O1178   1.994       .  S
Fe1169     O1187   2.052       .  S
Fe1169     O1174   2.030       .  S
Fe1169     O1181   2.032       .  S
Fe1169     O1170   2.107       .  S
Fe1169     O1178   1.963       .  S
O1170      C1177   1.267       .  A
O1171      C1185   1.279       .  A
O1172      C1177   1.251       .  A
O1173      C1176   1.307       .  A
O1174      C1186   1.270       .  A
O1175      C1188   1.257       .  A
C1176      O1181   1.267       .  A
C1176      C1221   1.493       .  S
C1177      C1208   1.474       .  S
O1179      C1182   1.275       .  A
O1180      C1182   1.298       .  A
C1182      C1336   1.525       .  S
O1183      C1188   1.265       .  A
O1184      C1186   1.242       .  A
C1185      O1187   1.275       .  A
C1186      C1405   1.407       .  S
Fe1189     O1205   2.163       .  S
Fe1189     O1195   1.985       .  S
Fe1189     O1202   2.086       .  S
Fe1189     O1194   2.156       .  S
Fe1189     O1200   1.934       .  S
Fe1190     O1193   1.966       .  S
Fe1190     O1197   2.112       .  S
Fe1190     O1201   2.031       .  S
Fe1190     O1206   2.078       .  S
Fe1190     O1200   1.992       .  S
Fe1191     O1209   2.027       .  S
Fe1191     O1196   2.050       .  S
Fe1191     O1203   2.107       .  S
Fe1191     O1192   2.041       .  S
Fe1191     O1200   1.960       .  S
O1192      C1199   1.270       .  A
O1193      C1207   1.244       .  A
O1194      C1199   1.310       .  A
O1195      C1198   1.248       .  A
O1196      C1208   1.273       .  A
O1197      C1210   1.280       .  A
C1198      O1203   1.266       .  A
O1201      C1204   1.256       .  A
O1202      C1204   1.264       .  A
O1205      C1210   1.297       .  A
O1206      C1208   1.275       .  A
C1207      O1209   1.271       .  A
C1207      C1340   1.407       .  S
Fe1211     O1227   2.162       .  S
Fe1211     O1217   1.985       .  S
Fe1211     O1224   2.086       .  S
Fe1211     O1216   2.156       .  S
Fe1211     O1222   1.934       .  S
Fe1212     O1215   1.966       .  S
Fe1212     O1219   2.112       .  S
Fe1212     O1223   2.031       .  S
Fe1212     O1228   2.078       .  S
Fe1212     O1222   1.992       .  S
Fe1213     O1231   2.027       .  S
Fe1213     O1218   2.050       .  S
Fe1213     O1225   2.107       .  S
Fe1213     O1214   2.042       .  S
Fe1213     O1222   1.960       .  S
O1214      C1221   1.271       .  A
O1215      C1229   1.244       .  A
O1216      C1221   1.310       .  A
O1217      C1220   1.248       .  A
O1218      C1230   1.273       .  A
O1219      C1232   1.280       .  A
C1220      O1225   1.266       .  A
O1223      C1226   1.256       .  A
O1224      C1226   1.264       .  A
O1227      C1232   1.297       .  A
O1228      C1230   1.275       .  A
C1229      O1231   1.271       .  A
C1229      C1362   1.407   1_554  S
Fe1233     O1249   2.163       .  S
Fe1233     O1239   1.985       .  S
Fe1233     O1246   2.086       .  S
Fe1233     O1238   2.156       .  S
Fe1233     O1244   1.934       .  S
Fe1234     O1237   1.966       .  S
Fe1234     O1241   2.112       .  S
Fe1234     O1245   2.031       .  S
Fe1234     O1250   2.078       .  S
Fe1234     O1244   1.992       .  S
Fe1235     O1253   2.027       .  S
Fe1235     O1240   2.050       .  S
Fe1235     O1247   2.107       .  S
Fe1235     O1236   2.041       .  S
Fe1235     O1244   1.960       .  S
O1236      C1243   1.270       .  A
O1237      C1251   1.244       .  A
O1238      C1243   1.310       .  A
O1239      C1242   1.248       .  A
O1240      C1252   1.273       .  A
O1241      C1254   1.280       .  A
C1242      O1247   1.266       .  A
C1242      C1317   1.474       .  S
C1243      C1286   1.493       .  S
O1245      C1248   1.256       .  A
O1246      C1248   1.264       .  A
O1249      C1254   1.297       .  A
O1250      C1252   1.275       .  A
C1251      O1253   1.271       .  A
Fe1255     O1271   2.162       .  S
Fe1255     O1261   1.985       .  S
Fe1255     O1268   2.086       .  S
Fe1255     O1260   2.156       .  S
Fe1255     O1266   1.934       .  S
Fe1256     O1259   1.966       .  S
Fe1256     O1263   2.112       .  S
Fe1256     O1267   2.031       .  S
Fe1256     O1272   2.078       .  S
Fe1256     O1266   1.992       .  S
Fe1257     O1275   2.027       .  S
Fe1257     O1262   2.050       .  S
Fe1257     O1269   2.107       .  S
Fe1257     O1258   2.042       .  S
Fe1257     O1266   1.960       .  S
O1258      C1265   1.271       .  A
O1259      C1273   1.244       .  A
O1260      C1265   1.310       .  A
O1261      C1264   1.248       .  A
O1262      C1274   1.273       .  A
O1263      C1276   1.280       .  A
C1264      O1269   1.266       .  A
C1264      C1295   1.474       .  S
C1265      C1308   1.493       .  S
O1267      C1270   1.256       .  A
O1268      C1270   1.264       .  A
O1271      C1276   1.297       .  A
O1272      C1274   1.275       .  A
C1273      O1275   1.271       .  A
Fe1277     O1293   2.086       .  S
Fe1277     O1283   2.160       .  S
Fe1277     O1290   2.164       .  S
Fe1277     O1282   1.988       .  S
Fe1277     O1288   1.937       .  S
Fe1278     O1281   2.078       .  S
Fe1278     O1285   2.021       .  S
Fe1278     O1289   2.089       .  S
Fe1278     O1294   1.960       .  S
Fe1278     O1288   1.994       .  S
Fe1279     O1297   2.052       .  S
Fe1279     O1284   2.030       .  S
Fe1279     O1291   2.032       .  S
Fe1279     O1280   2.106       .  S
Fe1279     O1288   1.963       .  S
O1280      C1287   1.267       .  A
O1281      C1295   1.279       .  A
O1282      C1287   1.251       .  A
O1283      C1286   1.307       .  A
O1284      C1296   1.270       .  A
O1285      C1298   1.257       .  A
C1286      O1291   1.267       .  A
O1289      C1292   1.275       .  A
O1290      C1292   1.298       .  A
O1293      C1298   1.265       .  A
O1294      C1296   1.242       .  A
C1295      O1297   1.275       .  A
C1298      C1380   1.473       .  S
Fe1299     O1315   2.086       .  S
Fe1299     O1305   2.160       .  S
Fe1299     O1312   2.165       .  S
Fe1299     O1304   1.988       .  S
Fe1299     O1310   1.937       .  S
Fe1300     O1303   2.078       .  S
Fe1300     O1307   2.022       .  S
Fe1300     O1311   2.089       .  S
Fe1300     O1316   1.961       .  S
Fe1300     O1310   1.994       .  S
Fe1301     O1319   2.052       .  S
Fe1301     O1306   2.030       .  S
Fe1301     O1313   2.032       .  S
Fe1301     O1302   2.107       .  S
Fe1301     O1310   1.963       .  S
O1302      C1309   1.267       .  A
O1303      C1317   1.279       .  A
O1304      C1309   1.251       .  A
O1305      C1308   1.307       .  A
O1306      C1318   1.270       .  A
O1307      C1320   1.257       .  A
C1308      O1313   1.267       .  A
O1311      C1314   1.275       .  A
O1312      C1314   1.298       .  A
O1315      C1320   1.265       .  A
O1316      C1318   1.242       .  A
C1317      O1319   1.275       .  A
C1320      C1402   1.473       .  S
Fe1321     O1337   2.086       .  S
Fe1321     O1327   2.160       .  S
Fe1321     O1334   2.164       .  S
Fe1321     O1326   1.988       .  S
Fe1321     O1332   1.937       .  S
Fe1322     O1325   2.078       .  S
Fe1322     O1329   2.021       .  S
Fe1322     O1333   2.089       .  S
Fe1322     O1338   1.960       .  S
Fe1322     O1332   1.994       .  S
Fe1323     O1341   2.052       .  S
Fe1323     O1328   2.030       .  S
Fe1323     O1335   2.032       .  S
Fe1323     O1324   2.106       .  S
Fe1323     O1332   1.963       .  S
O1324      C1331   1.267       .  A
O1325      C1339   1.279       .  A
O1326      C1331   1.251       .  A
O1327      C1330   1.307       .  A
O1328      C1340   1.270       .  A
O1329      C1342   1.257       .  A
C1330      O1335   1.267       .  A
C1330      C1375   1.493       .  S
C1331      C1406   1.474       .  S
O1333      C1336   1.275       .  A
O1334      C1336   1.298       .  A
O1337      C1342   1.265       .  A
O1338      C1340   1.242       .  A
C1339      O1341   1.275       .  A
Fe1343     O1359   2.086       .  S
Fe1343     O1349   2.160       .  S
Fe1343     O1356   2.165       .  S
Fe1343     O1348   1.988       .  S
Fe1343     O1354   1.937       .  S
Fe1344     O1347   2.078       .  S
Fe1344     O1351   2.022       .  S
Fe1344     O1355   2.089       .  S
Fe1344     O1360   1.961       .  S
Fe1344     O1354   1.994       .  S
Fe1345     O1363   2.052       .  S
Fe1345     O1350   2.030       .  S
Fe1345     O1357   2.032       .  S
Fe1345     O1346   2.107       .  S
Fe1345     O1354   1.963       .  S
O1346      C1353   1.267       .  A
O1347      C1361   1.279       .  A
O1348      C1353   1.251       .  A
O1349      C1352   1.307       .  A
O1350      C1362   1.270       .  A
O1351      C1364   1.257       .  A
C1352      O1357   1.267       .  A
C1352      C1397   1.493       .  S
C1353      C1384   1.474       .  S
O1355      C1358   1.275       .  A
O1356      C1358   1.298       .  A
O1359      C1364   1.265       .  A
O1360      C1362   1.242       .  A
C1361      O1363   1.275       .  A
Fe1365     O1381   2.163       .  S
Fe1365     O1371   1.985       .  S
Fe1365     O1378   2.086       .  S
Fe1365     O1370   2.156       .  S
Fe1365     O1376   1.934       .  S
Fe1366     O1369   1.966       .  S
Fe1366     O1373   2.112       .  S
Fe1366     O1377   2.031       .  S
Fe1366     O1382   2.078       .  S
Fe1366     O1376   1.992       .  S
Fe1367     O1385   2.027       .  S
Fe1367     O1372   2.050       .  S
Fe1367     O1379   2.107       .  S
Fe1367     O1368   2.041       .  S
Fe1367     O1376   1.960       .  S
O1368      C1375   1.270       .  A
O1369      C1383   1.244       .  A
O1370      C1375   1.310       .  A
O1371      C1374   1.248       .  A
O1372      C1384   1.273       .  A
O1373      C1386   1.280       .  A
C1374      O1379   1.266       .  A
O1377      C1380   1.256       .  A
O1378      C1380   1.264       .  A
O1381      C1386   1.297       .  A
O1382      C1384   1.275       .  A
C1383      O1385   1.271       .  A
Fe1387     O1403   2.162       .  S
Fe1387     O1393   1.985       .  S
Fe1387     O1400   2.086       .  S
Fe1387     O1392   2.156       .  S
Fe1387     O1398   1.934       .  S
Fe1388     O1391   1.966       .  S
Fe1388     O1395   2.112       .  S
Fe1388     O1399   2.031       .  S
Fe1388     O1404   2.078       .  S
Fe1388     O1398   1.992       .  S
Fe1389     O1407   2.027       .  S
Fe1389     O1394   2.050       .  S
Fe1389     O1401   2.107       .  S
Fe1389     O1390   2.042       .  S
Fe1389     O1398   1.960       .  S
O1390      C1397   1.271       .  A
O1391      C1405   1.244       .  A
O1392      C1397   1.310       .  A
O1393      C1396   1.248       .  A
O1394      C1406   1.273       .  A
O1395      C1408   1.280       .  A
C1396      O1401   1.266       .  A
O1399      C1402   1.256       .  A
O1400      C1402   1.264       .  A
O1403      C1408   1.297       .  A
O1404      C1406   1.275       .  A
C1405      O1407   1.271       .  A
