geometry optimzed in LAMMPS
_audit_creation_date              2020-12-01 
_audit_creation_method            'lammps2cif' 
_symmetry_space_group_name_H-M    'P1' 
_symmetry_Int_Tables_number       1 
_symmetry_cell_setting            triclinic 
loop_ 
_symmetry_equiv_pos_as_xyz 
  x,y,z 
_cell_length_a                    32.37226808 
_cell_length_b                    43.543422259715264 
_cell_length_c                    41.055753520809745 
_cell_angle_alpha                 90.43438149387693 
_cell_angle_beta                  90.33821420149378 
_cell_angle_gamma                 90.22880542607773 
loop_ 
_atom_site_label 
_atom_site_type_symbol 
_atom_site_fract_x 
_atom_site_fract_y 
_atom_site_fract_z 
_atom_site_charge 
O1          O  0.64423842  0.20146164  0.55961524    -0.86800
O2          O  0.70086927  0.15828485  0.56721700    -0.83900
C3          C  0.73421899  0.17171459  0.56045552     0.96600
O4          O  0.75102283  0.19067243  0.57995861    -0.83900
O5          O  0.75756071  0.23167436  0.63343500    -0.86600
C6          C  0.74264441  0.25697070  0.62482493     1.01100
O7          O  0.70656473  0.25812251  0.61355543    -0.79300
O8          O  0.63029473  0.24188071  0.58993333    -0.79500
C9          C  0.63162402  0.22859686  0.56210333     1.01100
O10         O  0.60006512  0.17986969  0.61403769    -0.86800
O11         O  0.66210469  0.13720992  0.62507484    -0.83900
C12         C  0.69786856  0.12593075  0.62500773     0.96600
O13         O  0.72894843  0.14343378  0.62326854    -0.83900
O14         O  0.72392470  0.18615010  0.67333681    -0.86500
C15         C  0.71337798  0.20953436  0.68964058     1.01100
O16         O  0.69191373  0.23074747  0.67641868    -0.79400
O17         O  0.61331599  0.21315014  0.65298297    -0.79500
C18         C  0.58883079  0.19483774  0.63870894     1.01100
Cr19       Cr  0.65397283  0.17147215  0.59396021     1.93700
Cr20       Cr  0.73600607  0.18881951  0.62672832     1.93200
Cr21       Cr  0.66197128  0.23294623  0.63219546     1.39100
O22         O  0.68354688  0.19787807  0.61787067    -1.24600
O23         O  0.85086539  0.02012841  0.41335441    -0.86800
O24         O  0.78917674  0.01555298  0.36648670    -0.83900
C25         C  0.75638947  0.01598635  0.38280827     0.96600
O26         O  0.74742254  0.03959337  0.39953384    -0.83900
O27         O  0.75795048  0.09931418  0.42763838    -0.86600
C28         C  0.78050750  0.09978540  0.45281198     1.01100
O29         O  0.81549582  0.08770781  0.45241636    -0.79300
O30         O  0.88489186  0.05974411  0.43272334    -0.79500
C31         C  0.87164110  0.03259926  0.43622591     1.01100
O32         O  0.89890397  0.05574978  0.36789554    -0.86800
O33         O  0.82958008  0.05703467  0.32530851    -0.83900
C34         C  0.79228246  0.06152619  0.31655802     0.96600
O35         O  0.76437239  0.06590916  0.33751278    -0.83900
O36         O  0.77945001  0.12255636  0.36676927    -0.86500
C37         C  0.79837466  0.14277311  0.38353467     1.01100
O38         O  0.82439877  0.13501049  0.40505142    -0.79400
O39         O  0.89239730  0.10418104  0.38087106    -0.79500
C40         C  0.91354507  0.08270123  0.36897011     1.01100
Cr41       Cr  0.84104499  0.03966757  0.36976219     1.93700
Cr42       Cr  0.76658160  0.08087345  0.38354347     1.93200
Cr43       Cr  0.85176746  0.09494222  0.41539832     1.39100
O44         O  0.81980952  0.07227695  0.38916680    -1.24600
O45         O  0.34815820  0.25798962  0.59318864    -0.86800
O46         O  0.28863737  0.26257019  0.64142831    -0.83900
C47         C  0.25444104  0.26067770  0.62694395     0.96600
O48         O  0.24507607  0.23648305  0.61120183    -0.83900
O49         O  0.25715446  0.17771307  0.58269529    -0.86600
C50         C  0.27836277  0.17733612  0.55698184     1.01100
O51         O  0.31462162  0.18767701  0.55680012    -0.79300
O52         O  0.38334563  0.21859485  0.57560641    -0.79500
C53         C  0.36906869  0.24519299  0.57086650     1.01100
O54         O  0.39947783  0.22551348  0.63937228    -0.86800
O55         O  0.33196121  0.22396143  0.68293558    -0.83900
C56         C  0.29546338  0.21813236  0.69255621     0.96600
O57         O  0.26700826  0.21101059  0.67261733    -0.83900
O58         O  0.28166322  0.15418590  0.64336364    -0.86500
C59         C  0.30096531  0.13427464  0.62676949     1.01100
O60         O  0.32649618  0.14258594  0.60539228    -0.79400
O61         O  0.39255719  0.17647883  0.62949766    -0.79500
C62         C  0.41409824  0.19868918  0.63978531     1.01100
Cr63       Cr  0.34084220  0.23977276  0.63770198     1.93700
Cr64       Cr  0.26713892  0.19584093  0.62673837     1.93200
Cr65       Cr  0.35174963  0.18317585  0.59425795     1.39100
O66         O  0.31971804  0.20591243  0.61985281    -1.24600
O67         O  0.11973778  0.06456409  0.42821424    -0.86800
O68         O  0.18879727  0.09464014  0.44743239    -0.83900
C69         C  0.22489809  0.10522904  0.44742506     0.96600
O70         O  0.24625267  0.10486678  0.42183034    -0.83900
O71         O  0.25774253  0.04555251  0.39363349    -0.86600
C72         C  0.24822053  0.02152586  0.37755475     1.01100
O73         O  0.21430943  0.02018889  0.36255887    -0.79300
O74         O  0.15406812  0.02500526  0.40995340    -0.79500
C75         C  0.13373634  0.03787663  0.43255708     1.01100
O76         O  0.11023806  0.10732719  0.37529296    -0.86800
O77         O  0.17740873  0.13986796  0.39884667    -0.83900
C78         C  0.20263513  0.14806062  0.37723665     0.96600
O79         O  0.22250488  0.12818739  0.36100023    -0.83900
O80         O  0.23768677  0.07130963  0.33223188    -0.86500
C81         C  0.20977855  0.06473070  0.31168216     1.01100
O82         O  0.17273905  0.05964456  0.32059727    -0.79400
O83         O  0.10419967  0.05854963  0.36374733    -0.79500
C84         C  0.08891987  0.08519966  0.36457203     1.01100
Cr85       Cr  0.15169894  0.09974278  0.40999957     1.93700
Cr86       Cr  0.23658163  0.08654615  0.37790379     1.93200
Cr87       Cr  0.16244228  0.04356449  0.36571189     1.39100
O88         O  0.18366676  0.07700642  0.38417949    -1.24600
O89         O  0.13989574  0.45235412  0.56012348    -0.86800
O90         O  0.19092736  0.40597387  0.57079160    -0.83900
C91         C  0.22309665  0.41841784  0.56002153     0.96600
O92         O  0.24224458  0.43863842  0.57668573    -0.83900
O93         O  0.25633122  0.48434907  0.62672787    -0.86600
C94         C  0.24097616  0.50949398  0.61748854     1.01100
O95         O  0.20480764  0.50979539  0.60685063    -0.79300
O96         O  0.12842067  0.49504467  0.58733452    -0.79500
C97         C  0.13097595  0.48037268  0.56033123     1.01100
O98         O  0.09429319  0.43746121  0.61707196    -0.86800
O99         O  0.15315384  0.39279161  0.63053943    -0.83900
C100        C  0.18811411  0.38015294  0.63214447     0.96600
O101        O  0.22073471  0.39549304  0.62657991    -0.83900
O102        O  0.22412076  0.44224061  0.67174974    -0.86500
C103        C  0.21352938  0.46606857  0.68722013     1.01100
O104        O  0.19296244  0.48739355  0.67323822    -0.79400
O105        O  0.11264662  0.47152040  0.65388700    -0.79500
C106        C  0.08613875  0.45344967  0.64186435     1.01100
Cr107      Cr  0.14675690  0.42455240  0.59676241     1.93700
Cr108      Cr  0.23188980  0.44106793  0.62451753     1.93200
Cr109      Cr  0.16089544  0.48788698  0.62964283     1.39100
O110        O  0.17940832  0.45116486  0.61765950    -1.24600
O111        O  0.37233810  0.28516018  0.41559289    -0.86800
O112        O  0.29472372  0.27251421  0.39800098    -0.83900
C113        C  0.25913272  0.27276591  0.38634868     0.96600
O114        O  0.24465557  0.29772103  0.37600631    -0.83900
O115        O  0.26029206  0.34366120  0.42571691    -0.86600
C116        C  0.28021620  0.36382061  0.44194800     1.01100
O117        O  0.31330246  0.37511063  0.43130959    -0.79300
O118        O  0.36511454  0.32923522  0.44113234    -0.79500
C119        C  0.37205967  0.30091119  0.44194111     1.01100
O120        O  0.38744294  0.30617306  0.34835057    -0.86800
O121        O  0.30639155  0.29239585  0.33033482    -0.83900
C122        C  0.28704204  0.31410747  0.31592594     0.96600
O123        O  0.27803222  0.33858074  0.33094909    -0.83900
O124        O  0.28125824  0.38595827  0.37582849    -0.86500
C125        C  0.31367800  0.40124644  0.36986223     1.01100
O126        O  0.34847838  0.38828300  0.37033036    -0.79400
O127        O  0.40714826  0.34301696  0.38173588    -0.79500
C128        C  0.41428791  0.32501788  0.35828232     1.01100
Cr129      Cr  0.33912640  0.29216780  0.37370245     1.93700
Cr130      Cr  0.27010608  0.34050388  0.37799736     1.93200
Cr131      Cr  0.35627847  0.35646344  0.40407970     1.39100
O132        O  0.32242633  0.32974950  0.38461733    -1.24600
O133        O  0.87313586  0.48979257  0.58963345    -0.86800
O134        O  0.79567479  0.50487582  0.60600777    -0.83900
C135        C  0.75860272  0.50425430  0.61447479     0.96600
O136        O  0.74425276  0.48047325  0.62736515    -0.83900
O137        O  0.75747986  0.43404532  0.57967694    -0.86600
C138        C  0.77611652  0.41321202  0.56393006     1.01100
O139        O  0.80823425  0.40097211  0.57515472    -0.79300
O140        O  0.86213558  0.44605359  0.56398598    -0.79500
C141        C  0.87171080  0.47407783  0.56332307     1.01100
O142        O  0.88787080  0.46941295  0.65665489    -0.86800
O143        O  0.80705483  0.48591146  0.67408903    -0.83900
C144        C  0.78671984  0.46495172  0.68883028     0.96600
O145        O  0.77589580  0.44061475  0.67425331    -0.83900
O146        O  0.77650746  0.39301752  0.63110752    -0.86500
C147        C  0.80760803  0.37701735  0.63838578     1.01100
O148        O  0.84357623  0.38830118  0.63637043    -0.79400
O149        O  0.90455661  0.43215015  0.62309539    -0.79500
C150        C  0.91376946  0.45027686  0.64606197     1.01100
Cr151      Cr  0.83950792  0.48440502  0.63107751     1.93700
Cr152      Cr  0.76782814  0.43791194  0.62730732     1.93200
Cr153      Cr  0.85253651  0.41935234  0.60165264     1.39100
O154        O  0.82058370  0.44719307  0.62069866    -1.24600
O155        O  0.63002305  0.32052698  0.44223868    -0.86800
O156        O  0.68326617  0.36690945  0.43773489    -0.83900
C157        C  0.71578842  0.35502010  0.44867696     0.96600
O158        O  0.73529282  0.33502266  0.43236252    -0.83900
O159        O  0.75186387  0.29139955  0.38150215    -0.86600
C160        C  0.73536829  0.26615732  0.38916328     1.01100
O161        O  0.69825047  0.26557411  0.39700987    -0.79300
O162        O  0.62061671  0.27956851  0.41148598    -0.79500
C163        C  0.62070125  0.29260491  0.43944481     1.01100
O164        O  0.59084954  0.33873174  0.38318347    -0.86800
O165        O  0.65164322  0.38395183  0.37663013    -0.83900
C166        C  0.68711742  0.39615787  0.37753485     0.96600
O167        O  0.71867265  0.38019742  0.38414114    -0.83900
O168        O  0.72399710  0.33578886  0.33677695    -0.86500
C169        C  0.71406858  0.31299253  0.31925294     1.01100
O170        O  0.69286634  0.29080553  0.33094574    -0.79400
O171        O  0.61172999  0.30612863  0.34594695    -0.79500
C172        C  0.58442466  0.32343096  0.35750347     1.01100
Cr173      Cr  0.64125723  0.35026116  0.40782801     1.93700
Cr174      Cr  0.72828508  0.33460625  0.38425043     1.93200
Cr175      Cr  0.65718477  0.28854855  0.37230085     1.39100
O176        O  0.67517975  0.32453926  0.38754099    -1.24600
O177        O  0.87027718  0.21095040  0.94277083    -0.86800
O178        O  0.81583918  0.16489215  0.93688529    -0.83900
C179        C  0.78339524  0.17690338  0.94765225     0.96600
O180        O  0.76426935  0.19713676  0.93148110    -0.83900
O181        O  0.74751958  0.23981753  0.88018058    -0.86600
C182        C  0.76350398  0.26545304  0.88683955     1.01100
O183        O  0.80068196  0.26685149  0.89515647    -0.79300
O184        O  0.87773458  0.25275476  0.91353252    -0.79500
C185        C  0.87852327  0.23919034  0.94098307     1.01100
O186        O  0.90928654  0.19128365  0.88422672    -0.86800
O187        O  0.84709218  0.14680563  0.87594263    -0.83900
C188        C  0.81083294  0.13575367  0.87515889     0.96600
O189        O  0.78039938  0.15232820  0.88273211    -0.83900
O190        O  0.77621266  0.19589190  0.83598224    -0.86500
C191        C  0.78750472  0.21806028  0.81852359     1.01100
O192        O  0.80990829  0.23986000  0.83021038    -0.79400
O193        O  0.89142723  0.22575882  0.84835750    -0.79500
C194        C  0.91752632  0.20725203  0.85971883     1.01100
Cr195      Cr  0.85825510  0.18093776  0.90776679     1.93700
Cr196      Cr  0.77168678  0.19738315  0.88336304     1.93200
Cr197      Cr  0.84358665  0.24310647  0.87278015     1.39100
O198        O  0.82498721  0.20716887  0.88737437    -1.24600
O199        O  0.62816736  0.03918070  0.09229370    -0.86800
O200        O  0.70588948  0.02488456  0.11106391    -0.83900
C201        C  0.74311782  0.02664424  0.11943601     0.96600
O202        O  0.75874498  0.05248526  0.12596332    -0.83900
O203        O  0.74156732  0.09623778  0.07604294    -0.86600
C204        C  0.72218334  0.11634067  0.05995510     1.01100
O205        O  0.68951927  0.12794062  0.07071252    -0.79300
O206        O  0.63657576  0.08114131  0.06359468    -0.79500
C207        C  0.62771805  0.05301436  0.06496975     1.01100
O208        O  0.61447500  0.06539522  0.15797927    -0.86800
O209        O  0.69601573  0.05090835  0.17568677    -0.83900
C210        C  0.72032088  0.07132396  0.18781061     0.96600
O211        O  0.73039789  0.09474855  0.17170812    -0.83900
O212        O  0.72400818  0.14018689  0.12595439    -0.86500
C213        C  0.69255324  0.15631515  0.13219693     1.01100
O214        O  0.65681018  0.14445170  0.13129211    -0.79400
O215        O  0.59582773  0.09941003  0.12192224    -0.79500
C216        C  0.58783638  0.08338381  0.14645201     1.01100
Cr217      Cr  0.66237722  0.04839207  0.13333163     1.93700
Cr218      Cr  0.73401184  0.09493280  0.12410302     1.93200
Cr219      Cr  0.64717242  0.11072312  0.09911342     1.39100
O220        O  0.68079847  0.08467812  0.11955145    -1.24600
O221        O  0.12746700  0.24660069  0.91215874    -0.86800
O222        O  0.20534297  0.26175825  0.89647292    -0.83900
C223        C  0.24256851  0.26095989  0.88855337     0.96600
O224        O  0.25915220  0.23553803  0.88246714    -0.83900
O225        O  0.24182270  0.19213799  0.93276284    -0.86600
C226        C  0.22259689  0.17146406  0.94810682     1.01100
O227        O  0.18999872  0.15958911  0.93691241    -0.79300
O228        O  0.13557533  0.20508642  0.94170092    -0.79500
C229        C  0.12623440  0.23302447  0.93957573     1.01100
O230        O  0.11677270  0.22009381  0.84665596    -0.86800
O231        O  0.19875284  0.23535286  0.83129519    -0.83900
C232        C  0.22299062  0.21460385  0.82023979     0.96600
O233        O  0.23255625  0.19173896  0.83726245    -0.83900
O234        O  0.22673755  0.14767908  0.88335315    -0.86500
C235        C  0.19637448  0.13092411  0.87527485     1.01100
O236        O  0.16011503  0.14175703  0.87511827    -0.79400
O237        O  0.09747841  0.18600811  0.88240986    -0.79500
C238        C  0.08972383  0.20236690  0.85801236     1.01100
Cr239      Cr  0.16341619  0.23778266  0.87258825     1.93700
Cr240      Cr  0.23541708  0.19278135  0.88465291     1.93200
Cr241      Cr  0.14821730  0.17549715  0.90687533     1.39100
O242        O  0.18192124  0.20201771  0.88742312    -1.24600
O243        O  0.37230777  0.07385620  0.06266977    -0.86800
O244        O  0.31349690  0.11578670  0.06393864    -0.83900
C245        C  0.28096990  0.10271650  0.05402586     0.96600
O246        O  0.26219318  0.08308401  0.07117361    -0.83900
O247        O  0.24686745  0.04301761  0.12434298    -0.86600
C248        C  0.26322558  0.01760031  0.11835872     1.01100
O249        O  0.30050047  0.01653345  0.11056810    -0.79300
O250        O  0.37709632  0.03190323  0.09196015    -0.79500
C251        C  0.38009620  0.04567669  0.06475257     1.01100
O252        O  0.40619463  0.09747692  0.12201988    -0.86800
O253        O  0.34082634  0.13913778  0.12511758    -0.83900
C254        C  0.30450824  0.14906682  0.12146673     0.96600
O255        O  0.27526258  0.13049256  0.11642889    -0.83900
O256        O  0.27348066  0.08922187  0.16642372    -0.86500
C257        C  0.28409060  0.06716392  0.18433641     1.01100
O258        O  0.30891973  0.04642090  0.17399169    -0.79400
O259        O  0.39057265  0.06094034  0.15622609    -0.79500
C260        C  0.41548485  0.08085328  0.14585295     1.01100
Cr261      Cr  0.35581089  0.10410049  0.09578831     1.93700
Cr262      Cr  0.26938715  0.08552428  0.11914566     1.93200
Cr263      Cr  0.34290710  0.04221015  0.13211321     1.39100
O264        O  0.32327053  0.07725072  0.11616844    -1.24600
O265        O  0.37127676  0.45432401  0.94047566    -0.86800
O266        O  0.31562810  0.40935866  0.93482382    -0.83900
C267        C  0.28372640  0.42164124  0.94631636     0.96600
O268        O  0.26467077  0.44229788  0.93066419    -0.83900
O269        O  0.24705966  0.48572799  0.88032316    -0.86600
C270        C  0.26330279  0.51117959  0.88716509     1.01100
O271        O  0.30057513  0.51236917  0.89520485    -0.79300
O272        O  0.37774929  0.49718347  0.91285350    -0.79500
C273        C  0.37954137  0.48256932  0.93968580     1.01100
O274        O  0.40814526  0.43571830  0.88073311    -0.86800
O275        O  0.34487819  0.39202171  0.87283236    -0.83900
C276        C  0.30851962  0.38123770  0.87303751     0.96600
O277        O  0.27860531  0.39817960  0.88091213    -0.83900
O278        O  0.27403186  0.44287339  0.83479467    -0.86500
C279        C  0.28502079  0.46544171  0.81766343     1.01100
O280        O  0.30865267  0.48647396  0.82956367    -0.79400
O281        O  0.39013324  0.47187283  0.84681431    -0.79500
C282        C  0.41629041  0.45294566  0.85716137     1.01100
Cr283      Cr  0.35756747  0.42540133  0.90503647     1.93700
Cr284      Cr  0.27076596  0.44325971  0.88238756     1.93200
Cr285      Cr  0.34292214  0.48870673  0.87203414     1.39100
O286        O  0.32425679  0.45248938  0.88584762    -1.24600
O287        O  0.12311453  0.28417280  0.09035990    -0.86800
O288        O  0.20080885  0.26888440  0.10562807    -0.83900
C289        C  0.23859758  0.26993505  0.11221320     0.96600
O290        O  0.25439537  0.29450642  0.12257545    -0.83900
O291        O  0.23920742  0.33940861  0.07363555    -0.86600
C292        C  0.22044779  0.36032667  0.05816726     1.01100
O293        O  0.18764268  0.37173057  0.06903217    -0.79300
O294        O  0.13287430  0.32604639  0.06182886    -0.79500
C295        C  0.12320722  0.29805884  0.06314641     1.01100
O296        O  0.11260675  0.30887114  0.15646740    -0.86800
O297        O  0.19386418  0.29223125  0.17260789    -0.83900
C298        C  0.21620194  0.31346374  0.18543500     0.96600
O299        O  0.22664930  0.33660189  0.16907599    -0.83900
O300        O  0.22334695  0.38195545  0.12418655    -0.86500
C301        C  0.19318272  0.39884235  0.13144055     1.01100
O302        O  0.15668729  0.38825378  0.13039306    -0.79400
O303        O  0.09415960  0.34396861  0.12134298    -0.79500
C304        C  0.08630845  0.32753140  0.14565081     1.01100
Cr305      Cr  0.15905839  0.29170534  0.13045878     1.93700
Cr306      Cr  0.23133239  0.33711988  0.12173137     1.93200
Cr307      Cr  0.14508795  0.35498924  0.09773306     1.39100
O308        O  0.17801700  0.32799042  0.11724366    -1.24600
O309        O  0.62809828  0.50219039  0.91318590    -0.86800
O310        O  0.70470076  0.51769862  0.89412998    -0.83900
C311        C  0.74197992  0.51617958  0.88641536     0.96600
O312        O  0.75792932  0.49047469  0.88085731    -0.83900
O313        O  0.74095540  0.44818631  0.93243516    -0.86600
C314        C  0.72157146  0.42811528  0.94865247     1.01100
O315        O  0.68979479  0.41521363  0.93726814    -0.79300
O316        O  0.63398080  0.45995596  0.94204026    -0.79500
C317        C  0.62626755  0.48824375  0.94038946     1.01100
O318        O  0.61374950  0.47498956  0.84804598    -0.86800
O319        O  0.69459583  0.48959284  0.83006673    -0.83900
C320        C  0.71796484  0.46840502  0.81885904     0.96600
O321        O  0.72974386  0.44651720  0.83665051    -0.83900
O322        O  0.72616398  0.40281585  0.88380606    -0.86500
C323        C  0.69618848  0.38564680  0.87590446     1.01100
O324        O  0.65978659  0.39616557  0.87580198    -0.79400
O325        O  0.59651902  0.43934372  0.88272273    -0.79500
C326        C  0.58803890  0.45581808  0.85862769     1.01100
Cr327      Cr  0.66162392  0.49281773  0.87246093     1.93700
Cr328      Cr  0.73399102  0.44800715  0.88414991     1.93200
Cr329      Cr  0.64746658  0.43022040  0.90724006     1.39100
O330        O  0.68055670  0.45709860  0.88739744    -1.24600
O331        O  0.86561316  0.33185304  0.06491227    -0.86800
O332        O  0.81226513  0.37803322  0.07270005    -0.83900
C333        C  0.77880853  0.36706726  0.06212398     0.96600
O334        O  0.75886694  0.34715062  0.07817485    -0.83900
O335        O  0.74291656  0.30255766  0.12780795    -0.86600
C336        C  0.75726137  0.27695400  0.11941836     1.01100
O337        O  0.79396525  0.27513825  0.11024164    -0.79300
O338        O  0.87196442  0.28894681  0.09232777    -0.79500
C339        C  0.87367517  0.30358440  0.06559799     1.01100
O340        O  0.90584289  0.34917296  0.12445044    -0.86800
O341        O  0.84535916  0.39485497  0.13342142    -0.83900
C342        C  0.80945410  0.40633193  0.13446647     0.96600
O343        O  0.77830581  0.38972866  0.12827795    -0.83900
O344        O  0.77481596  0.34383811  0.17376522    -0.86500
C345        C  0.78475640  0.32008954  0.18948718     1.01100
O346        O  0.80617220  0.29887173  0.17611697    -0.79400
O347        O  0.88755499  0.31284663  0.15814416    -0.79500
C348        C  0.91415420  0.33142282  0.14762399     1.01100
Cr349      Cr  0.85479499  0.36088850  0.10108585     1.93700
Cr350      Cr  0.76833425  0.34474899  0.12618880     1.93200
Cr351      Cr  0.83860805  0.29735207  0.13332937     1.39100
O352        O  0.82109050  0.33434337  0.12077199    -1.24600
C353        C  0.77869104  0.41236482  0.98496968    -0.14800
C354        C  0.73650282  0.41611617  0.97956851     0.07300
C355        C  0.70781836  0.40247995  0.00084975    -0.14800
C356        C  0.72118003  0.38478720  0.02691515    -0.14800
C357        C  0.76339599  0.38074589  0.03209925     0.07300
C358        C  0.79204064  0.39465490  0.01096580    -0.14800
H359        H  0.80114685  0.42192999  0.96837863     0.11300
H360        H  0.67489409  0.40497156  0.99680784     0.11300
H361        H  0.69874018  0.37501573  0.04337929     0.11300
H362        H  0.82498529  0.39197538  0.01473303     0.11300
C363        C  0.02342425  0.35761605  0.15768034    -0.14800
C364        C  0.04414281  0.32939828  0.15911209     0.07300
C365        C  0.02123037  0.30258179  0.16526808    -0.14800
C366        C  0.97782801  0.30358100  0.16571107    -0.14800
C367        C  0.95716057  0.33140752  0.15998060     0.07300
C368        C  0.98039668  0.35860836  0.15810201    -0.14800
H369        H  0.04039181  0.37862894  0.15309391     0.11300
H370        H  0.03647914  0.28050510  0.16613079     0.11300
H371        H  0.96062282  0.28224189  0.16694006     0.11300
H372        H  0.96524157  0.38037007  0.15386423     0.11300
C373        C  0.52334163  0.48038408  0.83802764    -0.14800
C374        C  0.54572933  0.45363446  0.84511660     0.07300
C375        C  0.52446833  0.42556596  0.84725147    -0.14800
C376        C  0.48140812  0.42482181  0.84678895    -0.14800
C377        C  0.45879360  0.45214935  0.84425139     0.07300
C378        C  0.47996421  0.47964181  0.83760099    -0.14800
H379        H  0.53902488  0.50234069  0.83650984     0.11300
H380        H  0.54105203  0.40458528  0.85246365     0.11300
H381        H  0.46582382  0.40329012  0.85167259     0.11300
H382        H  0.46324053  0.50106134  0.83578894     0.11300
C383        C  0.29443938  0.39016706  0.99568674    -0.14800
C384        C  0.26803434  0.40852882  0.97655017     0.07300
C385        C  0.22615957  0.41018117  0.98403208    -0.14800
C386        C  0.21071234  0.39321416  0.00981721    -0.14800
C387        C  0.23696491  0.37455275  0.02874779     0.07300
C388        C  0.27897858  0.37319709  0.02153488    -0.14800
H389        H  0.32708359  0.38852164  0.99031362     0.11300
H390        H  0.20519474  0.42368055  0.96934676     0.11300
H391        H  0.17802119  0.39481214  0.01502158     0.11300
H392        H  0.29987450  0.35959838  0.03617397     0.11300
C393        C  0.39459025  0.03031582  0.97384795    -0.14800
C394        C  0.38869824  0.49836384  0.97163475     0.07300
C395        C  0.38598450  0.48173989  0.00105965    -0.14800
C396        C  0.38659075  0.99672384  0.03154308    -0.14800
C397        C  0.38968434  0.02883482  0.03366024     0.07300
C398        C  0.39514575  0.04527435  0.00437168    -0.14800
H399        H  0.39660005  0.04395596  0.95196788     0.11300
H400        H  0.38121783  0.45711048  0.00058426     0.11300
H401        H  0.38158673  0.48326122  0.05329018     0.11300
H402        H  0.39760548  0.07008329  0.00485889     0.11300
C403        C  0.26135637  0.46649289  0.14319191    -0.14800
C404        C  0.24091786  0.98879083  0.12487607     0.07300
C405        C  0.19993774  0.98344318  0.11469603    -0.14800
C406        C  0.18131375  0.45470537  0.12008385    -0.14800
C407        C  0.20319135  0.43158749  0.13651223     0.07300
C408        C  0.24248101  0.43846547  0.14938633    -0.14800
H409        H  0.29246042  0.47050757  0.15221253     0.11300
H410        H  0.18341852  0.00075924  0.10109128     0.11300
H411        H  0.15140672  0.44976436  0.10926712     0.11300
H412        H  0.26012775  0.42106040  0.16200803     0.11300
C413        C  0.26365365  0.18822655  0.09341523    -0.14800
C414        C  0.29472843  0.18173807  0.11645307     0.07300
C415        C  0.31247035  0.20595061  0.13446396    -0.14800
C416        C  0.29642316  0.23581440  0.13136735    -0.14800
C417        C  0.26281648  0.24141363  0.11018220     0.07300
C418        C  0.24786785  0.21756493  0.09038967    -0.14800
H419        H  0.25018984  0.17017836  0.07841126     0.11300
H420        H  0.33671104  0.20152290  0.15207312     0.11300
H421        H  0.30833669  0.25396726  0.14700431     0.11300
H422        H  0.22241237  0.22124984  0.07361820     0.11300
C423        C  0.20111996  0.04604403  0.89180823    -0.14800
C424        C  0.24135754  0.04008817  0.88079730     0.07300
C425        C  0.26183948  0.06229225  0.86231406    -0.14800
C426        C  0.24396345  0.09074966  0.85681094    -0.14800
C427        C  0.20549287  0.09808414  0.87030629     0.07300
C428        C  0.18340022  0.07517316  0.88692515    -0.14800
H429        H  0.18472293  0.52904998  0.90601780     0.11300
H430        H  0.29238490  0.05785576  0.85272967     0.11300
H431        H  0.26174659  0.10800647  0.84408551     0.11300
H432        H  0.15411785  0.08050499  0.89821605     0.11300
C433        C  0.30521006  0.29623756  0.88995857    -0.14800
C434        C  0.26386178  0.29014218  0.88131859     0.07300
C435        C  0.24165014  0.31228821  0.86397457    -0.14800
C436        C  0.25907617  0.34075191  0.85738675    -0.14800
C437        C  0.29883759  0.34828689  0.86876287     0.07300
C438        C  0.32251399  0.32543825  0.88409761    -0.14800
H439        H  0.32315220  0.27916733  0.90277115     0.11300
H440        H  0.21020822  0.30777454  0.85602155     0.11300
H441        H  0.24010675  0.35786946  0.84553322     0.11300
H442        H  0.35294848  0.33083931  0.89366616     0.11300
C443        C  0.11387089  0.23366715  0.00019628    -0.14800
C444        C  0.11631737  0.24983401  0.97052546     0.07300
C445        C  0.11516011  0.28204785  0.97183928    -0.14800
C446        C  0.11438335  0.29759773  0.00197018    -0.14800
C447        C  0.11472262  0.28141907  0.03170033     0.07300
C448        C  0.11309185  0.24920698  0.03030351    -0.14800
H449        H  0.11471864  0.20880739  0.00031278     0.11300
H450        H  0.11724246  0.29529915  0.94969233     0.11300
H451        H  0.11571097  0.32245090  0.00194151     0.11300
H452        H  0.11361252  0.23592584  0.05249520     0.11300
C453        C  0.27896156  0.14482324  0.97611995    -0.14800
C454        C  0.23917305  0.15701213  0.97698815     0.07300
C455        C  0.21144579  0.14782834  0.00131219    -0.14800
C456        C  0.22360526  0.12693116  0.02490174    -0.14800
C457        C  0.26362103  0.11508995  0.02432483     0.07300
C458        C  0.29108405  0.12386864  0.99964341    -0.14800
H459        H  0.29999449  0.15061596  0.95665447     0.11300
H460        H  0.18009657  0.15647462  0.00159346     0.11300
H461        H  0.20268139  0.12138152  0.04452035     0.11300
H462        H  0.32252008  0.11538846  0.99945147     0.11300
C463        C  0.73333517  0.19964968  0.15451032    -0.14800
C464        C  0.69939653  0.18969599  0.13582800     0.07300
C465        C  0.68106734  0.21029652  0.11376875    -0.14800
C466        C  0.69838342  0.23965025  0.10900500    -0.14800
C467        C  0.73433759  0.24836443  0.12605061     0.07300
C468        C  0.75060531  0.22861398  0.14965398    -0.14800
H469        H  0.74842022  0.18406762  0.17120445     0.11300
H470        H  0.65564597  0.20279662  0.09835151     0.11300
H471        H  0.68531088  0.25466936  0.09077850     0.11300
H472        H  0.77797288  0.23513470  0.16341681     0.11300
C473        C  0.80534289  0.99114403  0.11506573    -0.14800
C474        C  0.76556301  0.99786413  0.12672823     0.07300
C475        C  0.74555492  0.47632908  0.14639697    -0.14800
C476        C  0.76329988  0.44787457  0.15257688    -0.14800
C477        C  0.80118864  0.43964313  0.13856175     0.07300
C478        C  0.82294483  0.46197598  0.12072072    -0.14800
H479        H  0.82155550  0.00760924  0.10014387     0.11300
H480        H  0.71535342  0.48124083  0.15638305     0.11300
H481        H  0.74567573  0.43121782  0.16628004     0.11300
H482        H  0.85176177  0.45609279  0.10900770     0.11300
C483        C  0.62138694  0.05273730  0.00360273    -0.14800
C484        C  0.61907805  0.03652619  0.03328425     0.07300
C485        C  0.61353472  0.00452141  0.03155199    -0.14800
C486        C  0.61305870  0.48908915  0.00123484    -0.14800
C487        C  0.61785970  0.50519940  0.97167337     0.07300
C488        C  0.62074778  0.03738525  0.97335885    -0.14800
H489        H  0.62575527  0.07740727  0.00366604     0.11300
H490        H  0.61171606  0.99118563  0.05365324     0.11300
H491        H  0.61078989  0.46426969  0.00106304     0.11300
H492        H  0.62494531  0.05062356  0.95139306     0.11300
C493        C  0.52262628  0.11196271  0.15537540    -0.14800
C494        C  0.54519509  0.08473301  0.15926619     0.07300
C495        C  0.52391725  0.05772281  0.16759197    -0.14800
C496        C  0.48047707  0.05713887  0.16751165    -0.14800
C497        C  0.45805041  0.08356452  0.15908690     0.07300
C498        C  0.47952750  0.11138795  0.15529679    -0.14800
H499        H  0.53825713  0.13318211  0.14925856     0.11300
H500        H  0.54056121  0.03639044  0.17055808     0.11300
H501        H  0.46472766  0.03534819  0.17039974     0.11300
H502        H  0.46305990  0.13217440  0.14909297     0.11300
C503        C  0.88389924  0.28856835  0.97397864    -0.14800
C504        C  0.88631682  0.25637254  0.97233331     0.07300
C505        C  0.88980625  0.24023504  0.00197467    -0.14800
C506        C  0.88818851  0.25555067  0.03224240    -0.14800
C507        C  0.88306601  0.28755257  0.03391887     0.07300
C508        C  0.88228575  0.30390204  0.00427477    -0.14800
H509        H  0.88083186  0.30182233  0.95189050     0.11300
H510        H  0.89172937  0.21541155  0.00187542     0.11300
H511        H  0.88894576  0.24211035  0.05431805     0.11300
H512        H  0.87836685  0.32858899  0.00437785     0.11300
C513        C  0.76306640  0.31739815  0.86381864    -0.14800
C514        C  0.74146707  0.29444104  0.88041200     0.07300
C515        C  0.70040023  0.29992886  0.88978538    -0.14800
C516        C  0.68287669  0.32924356  0.88533989    -0.14800
C517        C  0.70605293  0.35284402  0.87077623     0.07300
C518        C  0.74545745  0.34600039  0.85870545    -0.14800
H519        H  0.79429188  0.31343414  0.85542752     0.11300
H520        H  0.68294679  0.28229436  0.90214796     0.11300
H521        H  0.65271289  0.33406720  0.89537561     0.11300
H522        H  0.76403515  0.36366403  0.84736719     0.11300
C523        C  0.76298597  0.09563541  0.85560835    -0.14800
C524        C  0.80158318  0.10288332  0.86949506     0.07300
C525        C  0.82352408  0.07972701  0.88585542    -0.14800
C526        C  0.80527474  0.05063398  0.89053322    -0.14800
C527        C  0.76466991  0.04493108  0.87961697     0.07300
C528        C  0.74456304  0.06723231  0.86097064    -0.14800
H529        H  0.74539963  0.11299761  0.84287005     0.11300
H530        H  0.85302008  0.08486450  0.89726193     0.11300
H531        H  0.82176005  0.53336849  0.90420754     0.11300
H532        H  0.71382693  0.06298496  0.85129767     0.11300
C533        C  0.98300603  0.23116825  0.83917473    -0.14800
C534        C  0.95980241  0.20476477  0.84649328     0.07300
C535        C  0.98024778  0.17649938  0.84909091    -0.14800
C536        C  0.02325837  0.17519816  0.84861836    -0.14800
C537        C  0.04680971  0.20211811  0.84543868     0.07300
C538        C  0.02641005  0.22984221  0.83861827    -0.14800
H539        H  0.96800923  0.25328776  0.83740594     0.11300
H540        H  0.96308357  0.15577896  0.85458434     0.11300
H541        H  0.03817691  0.15353702  0.85383056     0.11300
H542        H  0.04386001  0.25099667  0.83646952     0.11300
C543        C  0.72510666  0.16234838  0.98329890    -0.14800
C544        C  0.76749315  0.16386379  0.97771087     0.07300
C545        C  0.79501923  0.14812327  0.99840960    -0.14800
C546        C  0.78033552  0.13091244  0.02426426    -0.14800
C547        C  0.73797246  0.12949228  0.02992646     0.07300
C548        C  0.71041774  0.14515674  0.00918972    -0.14800
H549        H  0.70341433  0.17358922  0.96716881     0.11300
H550        H  0.82804460  0.14883458  0.99431957     0.11300
H551        H  0.80203698  0.11960247  0.04033274     0.11300
H552        H  0.67739295  0.14439466  0.01327094     0.11300
C553        C  0.73412441  0.34139169  0.26947698    -0.14800
C554        C  0.72945498  0.31302500  0.28512964     0.07300
C555        C  0.74441489  0.28645085  0.26945459    -0.14800
C556        C  0.76391295  0.28849914  0.23881945    -0.14800
C557        C  0.76838035  0.31710880  0.22327950     0.07300
C558        C  0.75300679  0.34339215  0.23911562    -0.14800
H559        H  0.72331282  0.36233625  0.28095797     0.11300
H560        H  0.74202743  0.26434809  0.28122560     0.11300
H561        H  0.77486708  0.26773762  0.22709842     0.11300
H562        H  0.75553788  0.36579033  0.22798344     0.11300
C563        C  0.75693667  0.49571377  0.73590714    -0.14800
C564        C  0.77294940  0.46814762  0.72309952     0.07300
C565        C  0.76965452  0.44133770  0.74165328    -0.14800
C566        C  0.75073527  0.44171056  0.77197377    -0.14800
C567        C  0.73424120  0.46894164  0.78499790     0.07300
C568        C  0.73758163  0.49609218  0.76667093    -0.14800
H569        H  0.75816971  0.51658041  0.72175595     0.11300
H570        H  0.78120512  0.41967494  0.73234496     0.11300
H571        H  0.74899531  0.42035946  0.78528182     0.11300
H572        H  0.72571523  0.51753303  0.77623581     0.11300
C573        C  0.78817882  0.38558376  0.51231411    -0.14800
C574        C  0.76040258  0.40048007  0.53342713     0.07300
C575        C  0.71807309  0.39917855  0.52719619    -0.14800
C576        C  0.70361154  0.38272697  0.50033001    -0.14800
C577        C  0.73136962  0.36767546  0.47929601     0.07300
C578        C  0.77372999  0.36914482  0.48544925    -0.14800
H579        H  0.82118329  0.38641814  0.51681805     0.11300
H580        H  0.69627132  0.41001394  0.54352333     0.11300
H581        H  0.67061868  0.38200941  0.49576995     0.11300
H582        H  0.79557470  0.35842291  0.46907458     0.11300
C583        C  0.25687116  0.28409486  0.26768325    -0.14800
C584        C  0.27218915  0.31162245  0.28159859     0.07300
C585        C  0.26769432  0.33889997  0.26399106    -0.14800
C586        C  0.24839826  0.33905339  0.23364740    -0.14800
C587        C  0.23277521  0.31188464  0.21942066     0.07300
C588        C  0.23719637  0.28423619  0.23678217    -0.14800
H589        H  0.25904341  0.26279307  0.28101725     0.11300
H590        H  0.27870092  0.36054837  0.27401081     0.11300
H591        H  0.24579577  0.36082830  0.22122672     0.11300
H592        H  0.22596801  0.26284030  0.22637036     0.11300
C593        C  0.52037893  0.29691416  0.33890993    -0.14800
C594        C  0.54268296  0.32436634  0.34343342     0.07300
C595        C  0.52151162  0.35237664  0.34387605    -0.14800
C596        C  0.47852910  0.35272607  0.34445354    -0.14800
C597        C  0.45618226  0.32507216  0.34463019     0.07300
C598        C  0.47709826  0.29725737  0.33949766    -0.14800
H599        H  0.53619396  0.27503450  0.33893435     0.11300
H600        H  0.53821479  0.37378125  0.34732977     0.11300
H601        H  0.46292775  0.37443906  0.34811563     0.11300
H602        H  0.46043055  0.27564155  0.33977864     0.11300
C603        C  0.24855323  0.49456101  0.73405413    -0.14800
C604        C  0.22775036  0.46842512  0.72169234     0.07300
C605        C  0.22678501  0.44188345  0.74079796    -0.14800
C606        C  0.24595602  0.44120197  0.77131387    -0.14800
C607        C  0.26735719  0.46698397  0.78388139     0.07300
C608        C  0.26830278  0.49382680  0.76487596    -0.14800
H609        H  0.25080070  0.51508707  0.71942620     0.11300
H610        H  0.21167203  0.42123916  0.73175348     0.11300
H611        H  0.24416352  0.42009096  0.78502359     0.11300
H612        H  0.28408634  0.51419043  0.77384804     0.11300
C613        C  0.97839561  0.47747601  0.66432067    -0.14800
C614        C  0.95701697  0.44991470  0.65777521     0.07300
C615        C  0.97964439  0.42266241  0.65411947    -0.14800
C616        C  0.02257953  0.42352728  0.65248850    -0.14800
C617        C  0.04382292  0.45159043  0.65486823     0.07300
C618        C  0.02175562  0.47830311  0.66292301    -0.14800
H619        H  0.96166606  0.49882757  0.66699066     0.11300
H620        H  0.96396069  0.40105154  0.64932425     0.11300
H621        H  0.03897707  0.40257818  0.64659662     0.11300
H622        H  0.03753125  0.50023522  0.66472674     0.11300
C623        C  0.27976640  0.40725780  0.52124956    -0.14800
C624        C  0.23784572  0.40683366  0.52874804     0.07300
C625        C  0.20960690  0.39174100  0.50769821    -0.14800
C626        C  0.22324519  0.37663999  0.47985312    -0.14800
C627        C  0.26524392  0.37670756  0.47257745     0.07300
C628        C  0.29340652  0.39218208  0.49338130    -0.14800
H629        H  0.30198004  0.41833069  0.53734938     0.11300
H630        H  0.17686972  0.39128859  0.51302529     0.11300
H631        H  0.20103584  0.36546916  0.46382281     0.11300
H632        H  0.32615683  0.39258894  0.48811159     0.11300
C633        C  0.20785808  0.08047385  0.25323401    -0.14800
C634        C  0.22356971  0.06155800  0.27763602     0.07300
C635        C  0.25889366  0.04374670  0.27108055    -0.14800
C636        C  0.27854672  0.04507367  0.24080620    -0.14800
C637        C  0.26392504  0.06496274  0.21672308     0.07300
C638        C  0.22795865  0.08229510  0.22316718    -0.14800
H639        H  0.18143078  0.09498064  0.25797447     0.11300
H640        H  0.27211858  0.02947685  0.28991303     0.11300
H641        H  0.30575382  0.03124299  0.23659880     0.11300
H642        H  0.21537053  0.09755731  0.20496073     0.11300
C643        C  0.12069262  0.04065831  0.49316572    -0.14800
C644        C  0.12775466  0.02282994  0.46481337    -0.05500
C645        C  0.13263258  0.99108586  0.46827243    -0.14800
C646        C  0.13126890  0.97756334  0.49911620    -0.14800
C647        C  0.12572416  0.49529546  0.52773163     0.07300
C648        C  0.12001691  0.02714784  0.52426161    -0.14800
H649        H  0.11743437  0.06533727  0.49145571     0.11300
H650        H  0.13831654  0.97670645  0.44714103     0.11300
H651        H  0.13628525  0.45296390  0.50049452     0.11300
H652        H  0.11631231  0.04166839  0.54556161     0.11300
C653        C  0.30070710  0.98297289  0.39845262    -0.14800
C654        C  0.27563744  0.99445367  0.37339069     0.07300
C655        C  0.27093488  0.47678763  0.34450044    -0.14800
C656        C  0.28729800  0.44730503  0.34191011    -0.14800
C657        C  0.30977444  0.43489432  0.36770231     0.07300
C658        C  0.31793675  0.45335453  0.39543089    -0.14800
H659        H  0.30442374  0.99574035  0.42102035     0.11300
H660        H  0.25183252  0.48493889  0.32464202     0.11300
H661        H  0.27984761  0.43335459  0.32069363     0.11300
H662        H  0.33428166  0.44378779  0.41607223     0.11300
C663        C  0.18850866  0.20340689  0.39152437    -0.14800
C664        C  0.21147375  0.18142458  0.37377839     0.07300
C665        C  0.24666259  0.19125675  0.35699520    -0.14800
C666        C  0.26043963  0.22159336  0.36006477    -0.14800
C667        C  0.23908121  0.24291981  0.37949805     0.07300
C668        C  0.20213721  0.23399557  0.39425301    -0.14800
H669        H  0.16114427  0.19660929  0.40473574     0.11300
H670        H  0.26508594  0.17509423  0.34320582     0.11300
H671        H  0.28898119  0.22816217  0.34829345     0.11300
H672        H  0.18527074  0.25006711  0.40935467     0.11300
C673        C  0.29555413  0.19897390  0.74952261    -0.14800
C674        C  0.28319830  0.22095559  0.72691775     0.07300
C675        C  0.25153961  0.24160700  0.73529140    -0.14800
C676        C  0.23214749  0.24012639  0.76568241    -0.14800
C677        C  0.24327719  0.21730423  0.78794118     0.07300
C678        C  0.27574432  0.19709262  0.77965434    -0.14800
H679        H  0.31893108  0.18225183  0.74322500     0.11300
H680        H  0.24070840  0.25818069  0.71773575     0.11300
H681        H  0.20770452  0.25617947  0.77132907     0.11300
H682        H  0.28560664  0.17938818  0.79633376     0.11300
C683        C  0.25410847  0.09183648  0.64490763    -0.14800
C684        C  0.29078159  0.10091659  0.62963107     0.07300
C685        C  0.31398474  0.07829666  0.61298389    -0.14800
C686        C  0.29962214  0.04776297  0.61033170    -0.14800
C687        C  0.26146777  0.03955560  0.62377976     0.07300
C688        C  0.23952886  0.06169223  0.64174100    -0.14800
H689        H  0.23529625  0.10845929  0.65771366     0.11300
H690        H  0.34237053  0.08450207  0.60081655     0.11300
H691        H  0.31717423  0.53105281  0.59659007     0.11300
H692        H  0.21010031  0.05582480  0.65254816     0.11300
C693        C  0.21480084  0.33501642  0.66127863    -0.14800
C694        C  0.19203506  0.34667245  0.63526304     0.07300
C695        C  0.18344171  0.32752631  0.60817144    -0.14800
C696        C  0.20059199  0.29791561  0.60602627    -0.14800
C697        C  0.22658931  0.28740257  0.63097223     0.07300
C698        C  0.23150917  0.30564829  0.65930607    -0.14800
H699        H  0.22240062  0.34952420  0.68204191     0.11300
H700        H  0.16670640  0.33651183  0.58742329     0.11300
H701        H  0.19645558  0.28450686  0.58391990     0.11300
H702        H  0.25121003  0.29818306  0.67908887     0.11300
C703        C  0.38754682  0.24292882  0.51094817    -0.14800
C704        C  0.37548255  0.26028014  0.53855110     0.07300
C705        C  0.36579837  0.29132068  0.53407383    -0.14800
C706        C  0.36700941  0.30443121  0.50299176    -0.14800
C707        C  0.37723016  0.28686583  0.47504914     0.07300
C708        C  0.38805816  0.25596364  0.47957655    -0.14800
H709        H  0.39486977  0.21880861  0.51336296     0.11300
H710        H  0.35621157  0.30537584  0.55453063     0.11300
H711        H  0.35810360  0.32827698  0.50077460     0.11300
H712        H  0.39582438  0.24166160  0.45883081     0.11300
C713        C  0.21704994  0.12211104  0.50504735    -0.14800
C714        C  0.24020332  0.12186536  0.47626115     0.07300
C715        C  0.27462417  0.14139698  0.47357976    -0.14800
C716        C  0.28573910  0.16081485  0.49924840    -0.14800
C717        C  0.26269351  0.16097713  0.52808758     0.07300
C718        C  0.22818635  0.14152271  0.53073662    -0.14800
H719        H  0.19003569  0.10757718  0.50757761     0.11300
H720        H  0.29248085  0.14220267  0.45137219     0.11300
H721        H  0.31276225  0.17533754  0.49670060     0.11300
H722        H  0.21036839  0.14070454  0.55296252     0.11300
C723        C  0.74262787  0.04373071  0.27388097    -0.14800
C724        C  0.77860382  0.06047537  0.28211258     0.07300
C725        C  0.79607709  0.07978618  0.25880796    -0.14800
C726        C  0.77682982  0.08328665  0.22834277    -0.14800
C727        C  0.74005561  0.06719823  0.22036379     0.07300
C728        C  0.72387046  0.04671235  0.24321272    -0.14800
H729        H  0.72835018  0.02886926  0.29166361     0.11300
H730        H  0.82328999  0.09331354  0.26472411     0.11300
H731        H  0.79065615  0.09885520  0.21104754     0.11300
H732        H  0.69606201  0.03370985  0.23776277     0.11300
C733        C  0.75071993  0.18381090  0.36402174    -0.14800
C734        C  0.78707342  0.17572458  0.38055281     0.07300
C735        C  0.80902578  0.19886526  0.39778851    -0.14800
C736        C  0.79388679  0.22908545  0.39950351    -0.14800
C737        C  0.75619691  0.23634394  0.38454241     0.07300
C738        C  0.73535258  0.21362522  0.36625803    -0.14800
H739        H  0.73286469  0.16671030  0.35073320     0.11300
H740        H  0.83707719  0.19334519  0.41095185     0.11300
H741        H  0.81037915  0.24622567  0.41378965     0.11300
H742        H  0.70629373  0.21881712  0.35430538     0.11300
C743        C  0.73150479  0.97090407  0.35079608    -0.14800
C744        C  0.72919837  0.98857713  0.37968338     0.07300
C745        C  0.70562193  0.47742240  0.40569273    -0.14800
C746        C  0.68769062  0.44796910  0.40357811    -0.14800
C747        C  0.69279519  0.42961684  0.37546116     0.07300
C748        C  0.71372168  0.44173111  0.34882416    -0.14800
H749        H  0.74918849  0.97900209  0.33022275     0.11300
H750        H  0.70371051  0.49032584  0.42827969     0.11300
H751        H  0.67267472  0.43855139  0.42481845     0.11300
H752        H  0.71885179  0.42775498  0.32728633     0.11300
C753        C  0.89085845  0.03301113  0.49615941    -0.14800
C754        C  0.87855706  0.01647446  0.46793817     0.07300
C755        C  0.86838239  0.98531061  0.47135058    -0.14800
C756        C  0.86884465  0.47138947  0.50206491    -0.14800
C757        C  0.87872974  0.48829508  0.53060315     0.07300
C758        C  0.89064559  0.01917265  0.52709989    -0.14800
H759        H  0.89864986  0.05715900  0.49459309     0.11300
H760        H  0.85867497  0.97184707  0.45035874     0.11300
H761        H  0.85933327  0.44756951  0.50354223     0.11300
H762        H  0.89836289  0.03295023  0.54835982     0.11300
C763        C  0.02242829  0.11485676  0.36790019    -0.14800
C764        C  0.04438969  0.08893893  0.35700968     0.07300
C765        C  0.02214849  0.06385047  0.34411894    -0.14800
C766        C  0.97916217  0.06318453  0.34541797    -0.14800
C767        C  0.95724259  0.08758144  0.35961308     0.07300
C768        C  0.97909380  0.11417918  0.36922830    -0.14800
H769        H  0.03870931  0.13460702  0.37784961     0.11300
H770        H  0.03803777  0.04367473  0.33513799     0.11300
H771        H  0.96328621  0.04253674  0.33730093     0.11300
H772        H  0.96305078  0.13344961  0.38007381     0.11300
C773        C  0.76887904  0.18946470  0.76807111    -0.14800
C774        C  0.77202100  0.21781648  0.78440067     0.07300
C775        C  0.75413731  0.24381656  0.76991036    -0.14800
C776        C  0.73333500  0.24123903  0.73966929    -0.14800
C777        C  0.73029673  0.21264589  0.72342288     0.07300
C778        C  0.74858290  0.18693514  0.73811354    -0.14800
H779        H  0.78177787  0.16894345  0.77882515     0.11300
H780        H  0.75514213  0.26581053  0.78239295     0.11300
H781        H  0.72023900  0.26160987  0.72879704     0.11300
H782        H  0.74735670  0.16459782  0.72635119     0.11300
C783        C  0.62094053  0.22812318  0.50118226    -0.14800
C784        C  0.62001612  0.24448386  0.53110169     0.07300
C785        C  0.61231136  0.27614217  0.53012244    -0.14800
C786        C  0.60890086  0.29131282  0.50010677    -0.14800
C787        C  0.61310021  0.27527300  0.47020837     0.07300
C788        C  0.61755036  0.24327816  0.47121658    -0.14800
H789        H  0.62644576  0.20361130  0.50077071     0.11300
H790        H  0.61118252  0.28948204  0.55246253     0.11300
H791        H  0.60533968  0.31603185  0.50037516     0.11300
H792        H  0.62120886  0.23017660  0.44889815     0.11300
C793        C  0.74439357  0.30731796  0.65235654    -0.14800
C794        C  0.76450769  0.28578557  0.63259848     0.07300
C795        C  0.80427756  0.29237607  0.62100967    -0.14800
C796        C  0.82168008  0.32164940  0.62639859    -0.14800
C797        C  0.79971791  0.34412449  0.64390433     0.07300
C798        C  0.76198237  0.33604161  0.65824713    -0.14800
H799        H  0.71420158  0.30226391  0.66230629     0.11300
H800        H  0.82051433  0.27574853  0.60615649     0.11300
H801        H  0.85038690  0.32753982  0.61450906     0.11300
H802        H  0.74432576  0.35296257  0.67168003     0.11300
C803        C  0.68795001  0.06960054  0.63808711    -0.14800
C804        C  0.70505901  0.09300990  0.61910622     0.07300
C805        C  0.73329120  0.08536280  0.59454488    -0.14800
C806        C  0.74758016  0.05556600  0.59102051    -0.14800
C807        C  0.73410267  0.03258544  0.61213250     0.07300
C808        C  0.70259008  0.03935528  0.63465609    -0.14800
H809        H  0.66572796  0.07499867  0.65686581     0.11300
H810        H  0.74601983  0.10291400  0.57897147     0.11300
H811        H  0.77125250  0.55100325  0.57309074     0.11300
H812        H  0.69170919  0.02191968  0.65124261     0.11300
C813        C  0.52460869  0.21722228  0.66266279    -0.14800
C814        C  0.54508616  0.19222906  0.64836461     0.07300
C815        C  0.52169758  0.16693051  0.63719045    -0.14800
C816        C  0.47865530  0.16786687  0.63727465    -0.14800
C817        C  0.45810534  0.19423889  0.64826365     0.07300
C818        C  0.48137296  0.21830633  0.66243838    -0.14800
H819        H  0.54185141  0.23704486  0.67135425     0.11300
H820        H  0.53668619  0.14724163  0.62621048     0.11300
H821        H  0.46165732  0.14894566  0.62627810     0.11300
H822        H  0.46628152  0.23885395  0.67132478     0.11300
C823        C  0.72933360  0.16131078  0.50242241    -0.14800
C824        C  0.75367324  0.16137233  0.53076351     0.07300
C825        C  0.78713844  0.14134105  0.53336282    -0.14800
C826        C  0.79482092  0.12019726  0.50852314    -0.14800
C827        C  0.76927286  0.11910993  0.48070812     0.07300
C828        C  0.73700162  0.14031654  0.47757164    -0.14800
H829        H  0.70248406  0.17601841  0.50063786     0.11300
H830        H  0.80504588  0.14026218  0.55570522     0.11300
H831        H  0.82043666  0.10447688  0.51125199     0.11300
H832        H  0.71757583  0.14064195  0.45600448     0.11300
O833        O  0.64425271  0.70152760  0.55960322    -0.86800
O834        O  0.70086839  0.65833920  0.56718316    -0.83900
C835        C  0.73421905  0.67176476  0.56041729     0.96600
O836        O  0.75103193  0.69071738  0.57992134    -0.83900
O837        O  0.75758949  0.73170479  0.63340182    -0.86600
C838        C  0.74268899  0.75701216  0.62481253     1.01100
O839        O  0.70659424  0.75819409  0.61357315    -0.79300
O840        O  0.63031339  0.74194269  0.58993034    -0.79500
C841        C  0.63163133  0.72866004  0.56209779     1.01100
O842        O  0.60008697  0.67992800  0.61401787    -0.86800
O843        O  0.66210864  0.63726664  0.62504550    -0.83900
C844        C  0.69786799  0.62598170  0.62497425     0.96600
O845        O  0.72895302  0.64347738  0.62322732    -0.83900
O846        O  0.72395490  0.68618110  0.67330339    -0.86500
C847        C  0.71341131  0.70955946  0.68961753     1.01100
O848        O  0.69194686  0.73077835  0.67640762    -0.79400
O849        O  0.61335494  0.71318351  0.65298104    -0.79500
C850        C  0.58886965  0.69487043  0.63870958     1.01100
Cr851      Cr  0.65398493  0.67153166  0.59393598     1.93700
Cr852      Cr  0.73602459  0.68885900  0.62669344     1.93200
Cr853      Cr  0.66199897  0.73299552  0.63219121     1.39100
O854        O  0.68356945  0.69793094  0.61784636    -1.24600
O855        O  0.85087436  0.52011215  0.41335717    -0.86800
O856        O  0.78916094  0.51553685  0.36650979    -0.83900
C857        C  0.75638200  0.51599604  0.38284279     0.96600
O858        O  0.74744480  0.53961387  0.39955941    -0.83900
O859        O  0.75800347  0.59934564  0.42761200    -0.86600
C860        C  0.78056021  0.59982720  0.45278539     1.01100
O861        O  0.81554489  0.58774260  0.45239729    -0.79300
O862        O  0.88491304  0.55973082  0.43271103    -0.79500
C863        C  0.87165871  0.53258692  0.43622083     1.01100
O864        O  0.89892568  0.55569820  0.36787633    -0.86800
O865        O  0.82958713  0.55698566  0.32529991    -0.83900
C866        C  0.79228890  0.56147813  0.31655314     0.96600
O867        O  0.76438756  0.56587751  0.33751162    -0.83900
O868        O  0.77950470  0.62253663  0.36672296    -0.86500
C869        C  0.79842682  0.64276009  0.38348003     1.01100
O870        O  0.82446272  0.63500690  0.40499261    -0.79400
O871        O  0.89243442  0.60413651  0.38082640    -0.79500
C872        C  0.91357789  0.58264732  0.36894148     1.01100
Cr873      Cr  0.84105179  0.53963563  0.36976018     1.93700
Cr874      Cr  0.76661702  0.58087253  0.38353078     1.93200
Cr875      Cr  0.85181143  0.59493390  0.41536541     1.39100
O876        O  0.81983881  0.57226177  0.38915291    -1.24600
O877        O  0.34825947  0.75799132  0.59315422    -0.86800
O878        O  0.28876075  0.76258930  0.64140053    -0.83900
C879        C  0.25456346  0.76070912  0.62691772     0.96600
O880        O  0.24518147  0.73651606  0.61118180    -0.83900
O881        O  0.25722674  0.67776374  0.58266019    -0.86600
C882        C  0.27842561  0.67738726  0.55694242     1.01100
O883        O  0.31470507  0.68768802  0.55675829    -0.79300
O884        O  0.38343817  0.71859710  0.57556002    -0.79500
C885        C  0.36916544  0.74519975  0.57082699     1.01100
O886        O  0.39957405  0.72550636  0.63933244    -0.86800
O887        O  0.33207460  0.72397506  0.68290035    -0.83900
C888        C  0.29558536  0.71813169  0.69252992     0.96600
O889        O  0.26711814  0.71101810  0.67259797    -0.83900
O890        O  0.28172232  0.65419880  0.64331287    -0.86500
C891        C  0.30099821  0.63427708  0.62671302     1.01100
O892        O  0.32655686  0.64257830  0.60534887    -0.79400
O893        O  0.39263399  0.67647166  0.62946143    -0.79500
C894        C  0.41417508  0.69867722  0.63976219     1.01100
Cr895      Cr  0.34094953  0.73977859  0.63766574     1.93700
Cr896      Cr  0.26722770  0.69586612  0.62670794     1.93200
Cr897      Cr  0.35183055  0.68317619  0.59421850     1.39100
O898        O  0.31981044  0.70592135  0.61981825    -1.24600
O899        O  0.11982963  0.56456330  0.42825060    -0.86800
O900        O  0.18888467  0.59467502  0.44741825    -0.83900
C901        C  0.22497782  0.60527785  0.44739474     0.96600
O902        O  0.24633986  0.60488094  0.42180522    -0.83900
O903        O  0.25783933  0.54554119  0.39360193    -0.86600
C904        C  0.24828823  0.52151907  0.37752156     1.01100
O905        O  0.21435233  0.52019259  0.36256357    -0.79300
O906        O  0.15412861  0.52499868  0.40996088    -0.79500
C907        C  0.13380094  0.53786285  0.43257187     1.01100
O908        O  0.11027092  0.60730555  0.37530245    -0.86800
O909        O  0.17744532  0.63987162  0.39880544    -0.83900
C910        C  0.20268571  0.64805953  0.37720294     0.96600
O911        O  0.22257491  0.62818374  0.36098454    -0.83900
O912        O  0.23774310  0.57130202  0.33222604    -0.86500
C913        C  0.20983356  0.56471737  0.31168148     1.01100
O914        O  0.17279316  0.55963616  0.32059989    -0.79400
O915        O  0.10425459  0.55852876  0.36375910    -0.79500
C916        C  0.08896193  0.58517240  0.36458370     1.01100
Cr917      Cr  0.15176313  0.59974439  0.40999578     1.93700
Cr918      Cr  0.23665283  0.58654219  0.37788998     1.93200
Cr919      Cr  0.16249914  0.54356080  0.36571943     1.39100
O920        O  0.18373229  0.57700329  0.38417953    -1.24600
O921        O  0.13996962  0.95244127  0.56012059    -0.86800
O922        O  0.19101798  0.90606966  0.57073269    -0.83900
C923        C  0.22319232  0.91852846  0.55998664     0.96600
O924        O  0.24235373  0.93871216  0.57669161    -0.83900
O925        O  0.25641096  0.98435176  0.62679640    -0.86600
C926        C  0.24108770  0.00950163  0.61755022     1.01100
O927        O  0.20493374  0.00982602  0.60688496    -0.79300
O928        O  0.12853503  0.99512913  0.58734580    -0.79500
C929        C  0.13105700  0.98045983  0.56034037     1.01100
O930        O  0.09438238  0.93750233  0.61705742    -0.86800
O931        O  0.15322823  0.89281174  0.63046501    -0.83900
C932        C  0.18818843  0.88017484  0.63207029     0.96600
O933        O  0.22080695  0.89551782  0.62651925    -0.83900
O934        O  0.22414339  0.94221804  0.67175219    -0.86500
C935        C  0.21356890  0.96604725  0.68722959     1.01100
O936        O  0.19303644  0.98739187  0.67325122    -0.79400
O937        O  0.11271822  0.97157265  0.65386941    -0.79500
C938        C  0.08621822  0.95349762  0.64184340     1.01100
Cr939      Cr  0.14683898  0.92461090  0.59672729     1.93700
Cr940      Cr  0.23196043  0.94108849  0.62452136     1.93200
Cr941      Cr  0.16099151  0.98792798  0.62965086     1.39100
O942        O  0.17948772  0.95120407  0.61765098    -1.24600
O943        O  0.37232142  0.78517511  0.41555256    -0.86800
O944        O  0.29469127  0.77255328  0.39800336    -0.83900
C945        C  0.25910424  0.77278885  0.38634573     0.96600
O946        O  0.24461209  0.79774206  0.37600941    -0.83900
O947        O  0.26028369  0.84370195  0.42571722    -0.86600
C948        C  0.28022771  0.86386219  0.44193466     1.01100
O949        O  0.31332499  0.87513124  0.43129135    -0.79300
O950        O  0.36513744  0.82925844  0.44108260    -0.79500
C951        C  0.37206493  0.80093201  0.44189687     1.01100
O952        O  0.38738840  0.80616800  0.34830149    -0.86800
O953        O  0.30631497  0.79241356  0.33031517    -0.83900
C954        C  0.28695407  0.81412478  0.31591221     0.96600
O955        O  0.27796379  0.83860010  0.33094070    -0.83900
O956        O  0.28122014  0.88598318  0.37582792    -0.86500
C957        C  0.31363702  0.90127123  0.36985703     1.01100
O958        O  0.34843264  0.88829893  0.37028072    -0.79400
O959        O  0.40712137  0.84302981  0.38165529    -0.79500
C960        C  0.41424767  0.82500880  0.35821711     1.01100
Cr961      Cr  0.33908040  0.79218463  0.37367476     1.93700
Cr962      Cr  0.27006866  0.84052845  0.37799308     1.93200
Cr963      Cr  0.35627056  0.85648270  0.40402999     1.39100
O964        O  0.32239603  0.82977054  0.38459048    -1.24600
O965        O  0.87315950  0.98977676  0.58964686    -0.86800
O966        O  0.79569577  0.00483893  0.60603858    -0.83900
C967        C  0.75861956  0.00420105  0.61449391     0.96600
O968        O  0.74427777  0.98041196  0.62737832    -0.83900
O969        O  0.75752025  0.93393863  0.57973087    -0.86600
C970        C  0.77614825  0.91308310  0.56400885     1.01100
O971        O  0.80830416  0.90089815  0.57522865    -0.79300
O972        O  0.86210035  0.94605222  0.56398709    -0.79500
C973        C  0.87169189  0.97407420  0.56332835     1.01100
O974        O  0.88792179  0.96940724  0.65667284    -0.86800
O975        O  0.80710465  0.98589842  0.67412068    -0.83900
C976        C  0.78678277  0.96493857  0.68887214     0.96600
O977        O  0.77596865  0.94059576  0.67430408    -0.83900
O978        O  0.77664459  0.89297172  0.63120640    -0.86500
C979        C  0.80778143  0.87699447  0.63845003     1.01100
O980        O  0.84373406  0.88830366  0.63640476    -0.79400
O981        O  0.90463823  0.93220117  0.62305543    -0.79500
C982        C  0.91384203  0.95030577  0.64604352     1.01100
Cr983      Cr  0.83954508  0.98438676  0.63110208     1.93700
Cr984      Cr  0.76789436  0.93785781  0.62735975     1.93200
Cr985      Cr  0.85260466  0.91934793  0.60166910     1.39100
O986        O  0.82063705  0.94716758  0.62073124    -1.24600
O987        O  0.62989562  0.82054138  0.44218521    -0.86800
O988        O  0.68317322  0.86690502  0.43770949    -0.83900
C989        C  0.71565730  0.85499364  0.44869665     0.96600
O990        O  0.73515677  0.83497384  0.43240772    -0.83900
O991        O  0.75183533  0.79136333  0.38154917    -0.86600
C992        C  0.73532561  0.76612229  0.38918965     1.01100
O993        O  0.69820446  0.76555062  0.39702455    -0.79300
O994        O  0.62057208  0.77954873  0.41146578    -0.79500
C995        C  0.62061460  0.79261005  0.43941164     1.01100
O996        O  0.59081360  0.83873160  0.38308875    -0.86800
O997        O  0.65164844  0.88393209  0.37656485    -0.83900
C998        C  0.68712857  0.89612802  0.37750241     0.96600
O999        O  0.71866083  0.88016172  0.38416124    -0.83900
O1000       O  0.72404042  0.83574879  0.33681315    -0.86500
C1001       C  0.71410295  0.81296257  0.31927659     1.01100
O1002       O  0.69286690  0.79078132  0.33094821    -0.79400
O1003       O  0.61170022  0.80607017  0.34591119    -0.79500
C1004       C  0.58439268  0.82339023  0.35743546     1.01100
Cr1005     Cr  0.64119536  0.85025666  0.40776926     1.93700
Cr1006     Cr  0.72824903  0.83456772  0.38428715     1.93200
Cr1007     Cr  0.65715504  0.78851797  0.37228920     1.39100
O1008       O  0.67513334  0.82451533  0.38752321    -1.24600
O1009       O  0.87025548  0.71090382  0.94275614    -0.86800
O1010       O  0.81581057  0.66485423  0.93684902    -0.83900
C1011       C  0.78338401  0.67688340  0.94762572     0.96600
O1012       O  0.76426861  0.69712379  0.93145790    -0.83900
O1013       O  0.74753596  0.73981545  0.88017327    -0.86600
C1014       C  0.76353114  0.76544433  0.88684844     1.01100
O1015       O  0.80071531  0.76683220  0.89514936    -0.79300
O1016       O  0.87775499  0.75270357  0.91351731    -0.79500
C1017       C  0.87851311  0.73914191  0.94096958     1.01100
O1018       O  0.90928362  0.69124454  0.88421493    -0.86800
O1019       O  0.84707263  0.64677790  0.87590775    -0.83900
C1020       C  0.81080834  0.63573486  0.87512148     0.96600
O1021       O  0.78038173  0.65231601  0.88269880    -0.83900
O1022       O  0.77620592  0.69588472  0.83595967    -0.86500
C1023       C  0.78751364  0.71805123  0.81850543     1.01100
O1024       O  0.80992134  0.73984531  0.83019779    -0.79400
O1025       O  0.89142364  0.72571141  0.84833731    -0.79500
C1026       C  0.91752309  0.70720800  0.85970292     1.01100
Cr1027     Cr  0.85823994  0.68089968  0.90774303     1.93700
Cr1028     Cr  0.77168199  0.69737196  0.88334039     1.93200
Cr1029     Cr  0.84360139  0.74307446  0.87276540     1.39100
O1030       O  0.82498515  0.70714140  0.88735311    -1.24600
O1031       O  0.62816450  0.53919843  0.09229977    -0.86800
O1032       O  0.70589410  0.52490606  0.11101568    -0.83900
C1033       C  0.74312168  0.52664897  0.11939198     0.96600
O1034       O  0.75876742  0.55248240  0.12592528    -0.83900
O1035       O  0.74157427  0.59626419  0.07604077    -0.86600
C1036       C  0.72219135  0.61637809  0.05996907     1.01100
O1037       O  0.68953606  0.62797554  0.07074122    -0.79300
O1038       O  0.63664505  0.58113900  0.06358399    -0.79500
C1039       C  0.62776431  0.55301548  0.06496711     1.01100
O1040       O  0.61452350  0.56540010  0.15799640    -0.86800
O1041       O  0.69605949  0.55087833  0.17566546    -0.83900
C1042       C  0.72037452  0.57128180  0.18779619     0.96600
O1043       O  0.73045457  0.59471466  0.17170853    -0.83900
O1044       O  0.72401029  0.64018181  0.12599470    -0.86500
C1045       C  0.69254935  0.65630321  0.13224660     1.01100
O1046       O  0.65680521  0.64443914  0.13131629    -0.79400
O1047       O  0.59585272  0.59937485  0.12190465    -0.79500
C1048       C  0.58787472  0.58337190  0.14645394     1.01100
Cr1049     Cr  0.66240110  0.54839214  0.13332343     1.93700
Cr1050     Cr  0.73403706  0.59493171  0.12410185     1.93200
Cr1051     Cr  0.64719589  0.61072041  0.09911743     1.39100
O1052       O  0.68082376  0.58467953  0.11955532    -1.24600
O1053       O  0.12745830  0.74659587  0.91207746    -0.86800
O1054       O  0.20534021  0.76175931  0.89637910    -0.83900
C1055       C  0.24257998  0.76093512  0.88850014     0.96600
O1056       O  0.25914857  0.73550424  0.88242487    -0.83900
O1057       O  0.24180724  0.69210885  0.93271428    -0.86600
C1058       C  0.22257161  0.67144355  0.94806402     1.01100
O1059       O  0.18996964  0.65957514  0.93687023    -0.79300
O1060       O  0.13558083  0.70509623  0.94164288    -0.79500
C1061       C  0.12622369  0.73302882  0.93950086     1.01100
O1062       O  0.11677568  0.72005841  0.84658245    -0.86800
O1063       O  0.19876520  0.73532216  0.83122073    -0.83900
C1064       C  0.22298780  0.71455923  0.82017348     0.96600
O1065       O  0.23253573  0.69170039  0.83721084    -0.83900
O1066       O  0.22669327  0.64765114  0.88330408    -0.86500
C1067       C  0.19631118  0.63091048  0.87523810     1.01100
O1068       O  0.16006261  0.64175858  0.87507946    -0.79400
O1069       O  0.09746105  0.68601924  0.88237729    -0.79500
C1070       C  0.08971682  0.70235139  0.85795928     1.01100
Cr1071     Cr  0.16341571  0.73776444  0.87251031     1.93700
Cr1072     Cr  0.23539975  0.69275146  0.88460244     1.93200
Cr1073     Cr  0.14819753  0.67549846  0.90683191     1.39100
O1074       O  0.18191210  0.70200487  0.88736993    -1.24600
O1075       O  0.37227156  0.57384389  0.06262724    -0.86800
O1076       O  0.31350519  0.61580970  0.06392534    -0.83900
C1077       C  0.28094356  0.60276229  0.05404932     0.96600
O1078       O  0.26216246  0.58315393  0.07122590    -0.83900
O1079       O  0.24690210  0.54308959  0.12441263    -0.86600
C1080       C  0.26323854  0.51766768  0.11840266     1.01100
O1081       O  0.30050058  0.51659245  0.11057500    -0.79300
O1082       O  0.37710941  0.53192112  0.09195804    -0.79500
C1083       C  0.38007640  0.54566976  0.06473523     1.01100
O1084       O  0.40625973  0.59746196  0.12194580    -0.86800
O1085       O  0.34094828  0.63916761  0.12506676    -0.83900
C1086       C  0.30463888  0.64911810  0.12143590     0.96600
O1087       O  0.27535858  0.63056060  0.11645507    -0.83900
O1088       O  0.27360887  0.58929618  0.16647008    -0.86500
C1089       C  0.28418641  0.56721559  0.18436344     1.01100
O1090       O  0.30897624  0.54645892  0.17399713    -0.79400
O1091       O  0.39060694  0.56097750  0.15620757    -0.79500
C1092       C  0.41553598  0.58086330  0.14580354     1.01100
Cr1093     Cr  0.35585160  0.60411022  0.09574484     1.93700
Cr1094     Cr  0.26943887  0.58559420  0.11919282     1.93200
Cr1095     Cr  0.34293558  0.54224691  0.13211030     1.39100
O1096       O  0.32330955  0.57729054  0.11616604    -1.24600
O1097       O  0.37129430  0.95434248  0.94050108    -0.86800
O1098       O  0.31565722  0.90936859  0.93485508    -0.83900
C1099       C  0.28373848  0.92164607  0.94632505     0.96600
O1100       O  0.26467523  0.94228433  0.93065150    -0.83900
O1101       O  0.24707703  0.98568924  0.88027239    -0.86600
C1102       C  0.26331254  0.01114089  0.88713621     1.01100
O1103       O  0.30057074  0.01231789  0.89521972    -0.79300
O1104       O  0.37776792  0.99718227  0.91284959    -0.79500
C1105       C  0.37956748  0.98258536  0.93969217     1.01100
O1106       O  0.40817870  0.93572141  0.88076485    -0.86800
O1107       O  0.34494883  0.89199975  0.87288976    -0.83900
C1108       C  0.30859956  0.88119956  0.87308817     0.96600
O1109       O  0.27866330  0.89813118  0.88093919    -0.83900
O1110       O  0.27410553  0.94279975  0.83478952    -0.86500
C1111       C  0.28505724  0.96538141  0.81766474     1.01100
O1112       O  0.30865639  0.98643022  0.82957215    -0.79400
O1113       O  0.39013705  0.97184640  0.84681749    -0.79500
C1114       C  0.41630413  0.95293084  0.85717313     1.01100
Cr1115     Cr  0.35760514  0.92540016  0.90507304     1.93700
Cr1116     Cr  0.27080021  0.94321660  0.88237900     1.93200
Cr1117     Cr  0.34293074  0.98868020  0.87203911     1.39100
O1118       O  0.32428498  0.95246338  0.88585900    -1.24600
O1119       O  0.12314384  0.78410890  0.09027789    -0.86800
O1120       O  0.20086265  0.76884388  0.10554275    -0.83900
C1121       C  0.23865182  0.76992420  0.11212749     0.96600
O1122       O  0.25440825  0.79449659  0.12252080    -0.83900
O1123       O  0.23919181  0.83940029  0.07360500    -0.86600
C1124       C  0.22042125  0.86031562  0.05814136     1.01100
O1125       O  0.18760071  0.87170008  0.06899964    -0.79300
O1126       O  0.13284996  0.82600947  0.06177906    -0.79500
C1127       C  0.12320244  0.79801785  0.06307828     1.01100
O1128       O  0.11259912  0.80876307  0.15639137    -0.86800
O1129       O  0.19386821  0.79215615  0.17253932    -0.83900
C1130       C  0.21616596  0.81340072  0.18538762     0.96600
O1131       O  0.22661044  0.83654821  0.16904081    -0.83900
O1132       O  0.22329734  0.88191535  0.12416412    -0.86500
C1133       C  0.19312857  0.89879475  0.13141741     1.01100
O1134       O  0.15663743  0.88819911  0.13036577    -0.79400
O1135       O  0.09414290  0.84389328  0.12130448    -0.79500
C1136       C  0.08629776  0.82743209  0.14559455     1.01100
Cr1137     Cr  0.15907680  0.79163469  0.13038145     1.93700
Cr1138     Cr  0.23130873  0.83709005  0.12169572     1.93200
Cr1139     Cr  0.14505746  0.85493797  0.09769553     1.39100
O1140       O  0.17800329  0.82793907  0.11719266    -1.24600
O1141       O  0.62806088  0.00222948  0.91317481    -0.86800
O1142       O  0.70466319  0.01774389  0.89411045    -0.83900
C1143       C  0.74195304  0.01621337  0.88642911     0.96600
O1144       O  0.75790522  0.99050245  0.88090592    -0.83900
O1145       O  0.74091301  0.94822741  0.93249593    -0.86600
C1146       C  0.72152123  0.92816363  0.94871851     1.01100
O1147       O  0.68973336  0.91527026  0.93734275    -0.79300
O1148       O  0.63388868  0.95999626  0.94203940    -0.79500
C1149       C  0.62618739  0.98828480  0.94037781     1.01100
O1150       O  0.61373451  0.97499049  0.84804793    -0.86800
O1151       O  0.69458752  0.98958422  0.83007762    -0.83900
C1152       C  0.71798005  0.96840035  0.81889252     0.96600
O1153       O  0.72975958  0.94652451  0.83670184    -0.83900
O1154       O  0.72616286  0.90283986  0.88388889    -0.86500
C1155       C  0.69619850  0.88565804  0.87599493     1.01100
O1156       O  0.65979334  0.89616901  0.87587102    -0.79400
O1157       O  0.59650647  0.93933548  0.88271447    -0.79500
C1158       C  0.58803070  0.95580924  0.85861883     1.01100
Cr1159     Cr  0.66159976  0.99283294  0.87246129     1.93700
Cr1160     Cr  0.73397225  0.94803350  0.88420728     1.93200
Cr1161     Cr  0.64743148  0.93024541  0.90727161     1.39100
O1162       O  0.68053207  0.95712169  0.88742988    -1.24600
O1163       O  0.86554944  0.83181287  0.06489887    -0.86800
O1164       O  0.81221626  0.87800002  0.07270146    -0.83900
C1165       C  0.77873391  0.86704921  0.06215550     0.96600
O1166       O  0.75878422  0.84715504  0.07823251    -0.83900
O1167       O  0.74287238  0.80256783  0.12789123    -0.86600
C1168       C  0.75719144  0.77696162  0.11947938     1.01100
O1169       O  0.79387345  0.77514533  0.11025024    -0.79300
O1170       O  0.87187682  0.78890198  0.09230692    -0.79500
C1171       C  0.87359470  0.80354159  0.06558022     1.01100
O1172       O  0.90582228  0.84912747  0.12442751    -0.86800
O1173       O  0.84537306  0.89483589  0.13340205    -0.83900
C1174       C  0.80947882  0.90632957  0.13446620     0.96600
O1175       O  0.77831093  0.88973666  0.12830981    -0.83900
O1176       O  0.77487321  0.84384533  0.17381178    -0.86500
C1177       C  0.78479820  0.82008406  0.18951906     1.01100
O1178       O  0.80616679  0.79885301  0.17612640    -0.79400
O1179       O  0.88753945  0.81278670  0.15810879    -0.79500
C1180       C  0.91414033  0.83135987  0.14758620     1.01100
Cr1181     Cr  0.85476504  0.86085584  0.10107380     1.93700
Cr1182     Cr  0.76831705  0.84475447  0.12624026     1.93200
Cr1183     Cr  0.83855857  0.79732357  0.13332083     1.39100
O1184       O  0.82106034  0.83432587  0.12078064    -1.24600
C1185       C  0.77864324  0.91227141  0.98495553    -0.14800
C1186       C  0.73646210  0.91615423  0.97962792     0.07300
C1187       C  0.70776340  0.90260696  0.00096024    -0.14800
C1188       C  0.72110184  0.88488592  0.02701409    -0.14800
C1189       C  0.76330984  0.88072179  0.03212990     0.07300
C1190       C  0.79196864  0.89453039  0.01093615    -0.14800
H1191       H  0.80110413  0.92175757  0.96831796     0.11300
H1192       H  0.67484351  0.90519199  0.99696692     0.11300
H1193       H  0.69865630  0.87519281  0.04352517     0.11300
H1194       H  0.82490761  0.89175350  0.01465009     0.11300
C1195       C  0.02342790  0.85751368  0.15767272    -0.14800
C1196       C  0.04413432  0.82928830  0.15905953     0.07300
C1197       C  0.02120980  0.80246728  0.16516496    -0.14800
C1198       C  0.97780838  0.80347692  0.16560812    -0.14800
C1199       C  0.95715335  0.83131792  0.15992599     0.07300
C1200       C  0.98040046  0.85851576  0.15809031    -0.14800
H1201       H  0.04040567  0.87852955  0.15312313     0.11300
H1202       H  0.03644866  0.78038526  0.16598892     0.11300
H1203       H  0.96059335  0.78213995  0.16680134     0.11300
H1204       H  0.96525425  0.88028710  0.15388810     0.11300
C1205       C  0.52333827  0.98036523  0.83800462    -0.14800
C1206       C  0.54572842  0.95361767  0.84509695     0.07300
C1207       C  0.52447077  0.92554804  0.84723623    -0.14800
C1208       C  0.48141091  0.92480290  0.84678242    -0.14800
C1209       C  0.45879648  0.95213026  0.84424715     0.07300
C1210       C  0.47996191  0.97962168  0.83758530    -0.14800
H1211       H  0.53901910  0.00232253  0.83648292     0.11300
H1212       H  0.54105692  0.90456893  0.85245061     0.11300
H1213       H  0.46582828  0.90327219  0.85167398     0.11300
H1214       H  0.46323649  0.00104054  0.83577378     0.11300
C1215       C  0.29443345  0.89017811  0.99569673    -0.14800
C1216       C  0.26803649  0.90854369  0.97655807     0.07300
C1217       C  0.22616090  0.91020409  0.98403488    -0.14800
C1218       C  0.21070316  0.89323410  0.00981327    -0.14800
C1219       C  0.23694664  0.87456061  0.02873798     0.07300
C1220       C  0.27896185  0.87320309  0.02153448    -0.14800
H1221       H  0.32707899  0.88852864  0.99032983     0.11300
H1222       H  0.20520344  0.92370936  0.96934919     0.11300
H1223       H  0.17801131  0.89483552  0.01501368     0.11300
H1224       H  0.29985054  0.85959606  0.03617124     0.11300
C1225       C  0.39470608  0.53026619  0.97385712    -0.14800
C1226       C  0.38874629  0.99839692  0.97163026     0.07300
C1227       C  0.38620344  0.98176270  0.00105884    -0.14800
C1228       C  0.38638040  0.49670235  0.03154130    -0.14800
C1229       C  0.38965048  0.52880350  0.03365926     0.07300
C1230       C  0.39526740  0.54522598  0.00437977    -0.14800
H1231       H  0.39685049  0.54389706  0.95197880     0.11300
H1232       H  0.38157638  0.95711904  0.00058732     0.11300
H1233       H  0.38193108  0.98326576  0.05329830     0.11300
H1234       H  0.39786266  0.57002769  0.00487222     0.11300
C1235       C  0.26133020  0.96642347  0.14314031    -0.14800
C1236       C  0.24093357  0.48885968  0.12493282     0.07300
C1237       C  0.19996073  0.48350087  0.11474339    -0.14800
C1238       C  0.18127238  0.95465665  0.12005106    -0.14800
C1239       C  0.20313689  0.93153900  0.13648981     0.07300
C1240       C  0.24243344  0.93840932  0.14935654    -0.14800
H1241       H  0.29243809  0.97042998  0.15215649     0.11300
H1242       H  0.18343554  0.50081444  0.10113956     0.11300
H1243       H  0.15136123  0.94972137  0.10923860     0.11300
H1244       H  0.26007143  0.92100397  0.16198551     0.11300
C1245       C  0.26389204  0.68826225  0.09326747    -0.14800
C1246       C  0.29490487  0.68178554  0.11636124     0.07300
C1247       C  0.31258325  0.70600163  0.13440227    -0.14800
C1248       C  0.29650772  0.73585375  0.13129455    -0.14800
C1249       C  0.26293044  0.74143469  0.11007490     0.07300
C1250       C  0.24806952  0.71759059  0.09023623    -0.14800
H1251       H  0.25048424  0.67020666  0.07824301     0.11300
H1252       H  0.33677719  0.70158140  0.15205362     0.11300
H1253       H  0.30835862  0.75400624  0.14696151     0.11300
H1254       H  0.22264276  0.72126663  0.07343541     0.11300
C1255       C  0.20116955  0.54610150  0.89201002    -0.14800
C1256       C  0.24132113  0.54011095  0.88083460     0.07300
C1257       C  0.26167329  0.56225451  0.86218362    -0.14800
C1258       C  0.24375953  0.59069651  0.85666354    -0.14800
C1259       C  0.20538439  0.59806682  0.87030010     0.07300
C1260       C  0.18341542  0.57521174  0.88710202    -0.14800
H1261       H  0.18456939  0.02894729  0.90567886     0.11300
H1262       H  0.29214934  0.55778430  0.85248122     0.11300
H1263       H  0.26145129  0.60791982  0.84381057     0.11300
H1264       H  0.15422011  0.58058212  0.89851196     0.11300
C1265       C  0.30519747  0.79622752  0.89012759    -0.14800
C1266       C  0.26392085  0.79010467  0.88129721     0.07300
C1267       C  0.24182455  0.81221997  0.86381738    -0.14800
C1268       C  0.25928068  0.84068483  0.85727322    -0.14800
C1269       C  0.29895633  0.84824402  0.86881516     0.07300
C1270       C  0.32252897  0.82542500  0.88429933    -0.14800
H1271       H  0.32304866  0.77918420  0.90305885     0.11300
H1272       H  0.21044223  0.80768365  0.85573043     0.11300
H1273       H  0.24038978  0.85778539  0.84531491     0.11300
H1274       H  0.35288706  0.83085111  0.89400482     0.11300
C1275       C  0.11379219  0.73366102  0.00010542    -0.14800
C1276       C  0.11628439  0.74983712  0.97044298     0.07300
C1277       C  0.11516320  0.78205060  0.97176590    -0.14800
C1278       C  0.11439071  0.79759015  0.00190223    -0.14800
C1279       C  0.11470089  0.78139917  0.03162522     0.07300
C1280       C  0.11302075  0.74918969  0.03021673    -0.14800
H1281       H  0.11460429  0.70880034  0.00021338     0.11300
H1282       H  0.11727821  0.79530694  0.94962434     0.11300
H1283       H  0.11575197  0.82244248  0.00188398     0.11300
H1284       H  0.11351044  0.73589990  0.05240292     0.11300
C1285       C  0.27892272  0.64480557  0.97609992    -0.14800
C1286       C  0.23913690  0.65699898  0.97695572     0.07300
C1287       C  0.21140854  0.64783833  0.00128980    -0.14800
C1288       C  0.22356942  0.62696599  0.02490626    -0.14800
C1289       C  0.26358517  0.61512256  0.02434185     0.07300
C1290       C  0.29104369  0.62387288  0.99964562    -0.14800
H1291       H  0.29995630  0.65057879  0.95662834     0.11300
H1292       H  0.18006058  0.65648728  0.00156217     0.11300
H1293       H  0.20264678  0.62143691  0.04453213     0.11300
H1294       H  0.32247752  0.61538811  0.99945792     0.11300
C1295       C  0.73342716  0.69960752  0.15451535    -0.14800
C1296       C  0.69939451  0.68968246  0.13592178     0.07300
C1297       C  0.68094067  0.71032531  0.11397147    -0.14800
C1298       C  0.69823171  0.73968870  0.10920899    -0.14800
C1299       C  0.73428534  0.74836898  0.12614333     0.07300
C1300       C  0.75067526  0.72857756  0.14965509    -0.14800
H1301       H  0.74860095  0.68399828  0.17113095     0.11300
H1302       H  0.65543522  0.70285412  0.09862596     0.11300
H1303       H  0.68506004  0.75474103  0.09105786     0.11300
H1304       H  0.77811809  0.73507159  0.16333786     0.11300
C1305       C  0.80539149  0.49117331  0.11517125    -0.14800
C1306       C  0.76553273  0.49785814  0.12669120     0.07300
C1307       C  0.74569017  0.97637023  0.14654321    -0.14800
C1308       C  0.76344949  0.94791157  0.15269498    -0.14800
C1309       C  0.80125033  0.93964776  0.13855477     0.07300
C1310       C  0.82291068  0.96194857  0.12059767    -0.14800
H1311       H  0.82168750  0.50766972  0.10034385     0.11300
H1312       H  0.71555048  0.98130868  0.15662922     0.11300
H1313       H  0.74589525  0.93127599  0.16648122     0.11300
H1314       H  0.85165022  0.95603726  0.10878288     0.11300
C1315       C  0.62141880  0.55271051  0.00360082    -0.14800
C1316       C  0.61915227  0.53650819  0.03328867     0.07300
C1317       C  0.61368435  0.50449516  0.03157112    -0.14800
C1318       C  0.61289072  0.98912758  0.00120908    -0.14800
C1319       C  0.61775409  0.00524175  0.97165612     0.07300
C1320       C  0.62079334  0.53734674  0.97336339    -0.14800
H1321       H  0.62573376  0.57738543  0.00365403     0.11300
H1322       H  0.61190905  0.49116488  0.05367849     0.11300
H1323       H  0.61056810  0.96431071  0.00102663     0.11300
H1324       H  0.62494489  0.55058262  0.95139050     0.11300
C1325       C  0.52267833  0.61196148  0.15535386    -0.14800
C1326       C  0.54523737  0.58473028  0.15926780     0.07300
C1327       C  0.52394935  0.55772548  0.16759447    -0.14800
C1328       C  0.48050958  0.55714702  0.16749131    -0.14800
C1329       C  0.45809733  0.58357197  0.15904034     0.07300
C1330       C  0.47958095  0.61139087  0.15524646    -0.14800
H1331       H  0.53831886  0.63317639  0.14923452     0.11300
H1332       H  0.54058698  0.53639236  0.17057636     0.11300
H1333       H  0.46475187  0.53536015  0.17038340     0.11300
H1334       H  0.46312235  0.63217592  0.14902262     0.11300
C1335       C  0.88382055  0.78852129  0.97396223    -0.14800
C1336       C  0.88628026  0.75632740  0.97232010     0.07300
C1337       C  0.88977792  0.74019329  0.00196252    -0.14800
C1338       C  0.88813778  0.75551021  0.03222858    -0.14800
C1339       C  0.88298216  0.78750954  0.03390129     0.07300
C1340       C  0.88218310  0.80385600  0.00425611    -0.14800
H1341       H  0.88073970  0.80177154  0.95187263     0.11300
H1342       H  0.89172907  0.71537106  0.00186452     0.11300
H1343       H  0.88890992  0.74207247  0.05430572     0.11300
H1344       H  0.87823548  0.82854035  0.00435649     0.11300
C1345       C  0.76308242  0.81740799  0.86387338    -0.14800
C1346       C  0.74149557  0.79444205  0.88046329     0.07300
C1347       C  0.70044456  0.79993291  0.88987772    -0.14800
C1348       C  0.68292054  0.82925173  0.88545921    -0.14800
C1349       C  0.70607923  0.85285509  0.87088284     0.07300
C1350       C  0.74547394  0.84601570  0.85879058    -0.14800
H1351       H  0.79429696  0.81344469  0.85545694     0.11300
H1352       H  0.68300327  0.78229472  0.90224500     0.11300
H1353       H  0.65276790  0.83407349  0.89551666     0.11300
H1354       H  0.76404036  0.86368270  0.84744696     0.11300
C1355       C  0.76290027  0.59562893  0.85564282    -0.14800
C1356       C  0.80154313  0.60286680  0.86945516     0.07300
C1357       C  0.82354610  0.57969546  0.88574022    -0.14800
C1358       C  0.80531621  0.55059650  0.89042542    -0.14800
C1359       C  0.76467165  0.54490492  0.87959518     0.07300
C1360       C  0.74449795  0.56722285  0.86101775    -0.14800
H1361       H  0.74526841  0.61299960  0.84295662     0.11300
H1362       H  0.85308356  0.58482239  0.89708419     0.11300
H1363       H  0.82166663  0.03342075  0.90437433     0.11300
H1364       H  0.71372921  0.56298444  0.85140601     0.11300
C1365       C  0.98298884  0.73113062  0.83914465    -0.14800
C1366       C  0.95979789  0.70472431  0.84647630     0.07300
C1367       C  0.98025236  0.67646311  0.84907365    -0.14800
C1368       C  0.02326264  0.67516916  0.84858139    -0.14800
C1369       C  0.04680367  0.70209293  0.84538752     0.07300
C1370       C  0.02639233  0.72981256  0.83857245    -0.14800
H1371       H  0.96798385  0.75324710  0.83737658     0.11300
H1372       H  0.96309767  0.65574107  0.85457810     0.11300
H1373       H  0.03819158  0.65351176  0.85379290     0.11300
H1374       H  0.04383456  0.75096980  0.83641653     0.11300
C1375       C  0.72511093  0.66241098  0.98332709    -0.14800
C1376       C  0.76749139  0.66386246  0.97769556     0.07300
C1377       C  0.79501027  0.64808780  0.99837041    -0.14800
C1378       C  0.78032478  0.63089843  0.02423877    -0.14800
C1379       C  0.73796841  0.62953635  0.02994094     0.07300
C1380       C  0.71042013  0.64524222  0.00923387    -0.14800
H1381       H  0.70342232  0.67368307  0.96721884     0.11300
H1382       H  0.82803087  0.64875323  0.99425013     0.11300
H1383       H  0.80202262  0.61955507  0.04028334     0.11300
H1384       H  0.67740014  0.64452554  0.01334602     0.11300
C1385       C  0.73422997  0.84137889  0.26953155    -0.14800
C1386       C  0.72951378  0.81300449  0.28516102     0.07300
C1387       C  0.74444428  0.78642935  0.26947078    -0.14800
C1388       C  0.76394658  0.78848287  0.23883818    -0.14800
C1389       C  0.76844785  0.81709903  0.22331712     0.07300
C1390       C  0.75311827  0.84338499  0.23917372    -0.14800
H1391       H  0.72344458  0.86232470  0.28102577     0.11300
H1392       H  0.74202406  0.76432065  0.28122527     0.11300
H1393       H  0.77487004  0.76772007  0.22710131     0.11300
H1394       H  0.75567997  0.86578822  0.22805698     0.11300
C1395       C  0.75698338  0.99570136  0.73594373    -0.14800
C1396       C  0.77301421  0.96813811  0.72314396     0.07300
C1397       C  0.76973007  0.94133128  0.74170606    -0.14800
C1398       C  0.75080005  0.94170437  0.77202421    -0.14800
C1399       C  0.73428133  0.96893202  0.78503667     0.07300
C1400       C  0.73761604  0.99607951  0.76670316    -0.14800
H1401       H  0.75820797  0.01656546  0.72178794     0.11300
H1402       H  0.78129466  0.91967008  0.73240481     0.11300
H1403       H  0.74906747  0.92035630  0.78533822     0.11300
H1404       H  0.72573277  0.01751860  0.77625910     0.11300
C1405       C  0.78807008  0.88502937  0.51261049    -0.14800
C1406       C  0.76040464  0.90028131  0.53353563     0.07300
C1407       C  0.71810833  0.89939578  0.52708794    -0.14800
C1408       C  0.70356820  0.88302724  0.50018933    -0.14800
C1409       C  0.73121886  0.86763852  0.47933498     0.07300
C1410       C  0.77354377  0.86867074  0.48571991    -0.14800
H1411       H  0.82105206  0.88554009  0.51725991     0.11300
H1412       H  0.69637434  0.91051994  0.54325324     0.11300
H1413       H  0.67060389  0.88264311  0.49546706     0.11300
H1414       H  0.79532705  0.85766772  0.46950348     0.11300
C1415       C  0.25696848  0.78406741  0.26761239    -0.14800
C1416       C  0.27206148  0.81163729  0.28158859     0.07300
C1417       C  0.26734263  0.83892647  0.26403263    -0.14800
C1418       C  0.24806215  0.83904777  0.23368219    -0.14800
C1419       C  0.23268124  0.81183542  0.21939132     0.07300
C1420       C  0.23730980  0.78417673  0.23670239    -0.14800
H1421       H  0.25931810  0.76274959  0.28089887     0.11300
H1422       H  0.27817430  0.86060736  0.27409021     0.11300
H1423       H  0.24529007  0.86083105  0.22130014     0.11300
H1424       H  0.22627185  0.76274901  0.22623832     0.11300
C1425       C  0.52033332  0.79684372  0.33891936    -0.14800
C1426       C  0.54264905  0.82430194  0.34336229     0.07300
C1427       C  0.52148475  0.85231629  0.34373443    -0.14800
C1428       C  0.47850094  0.85267537  0.34431836    -0.14800
C1429       C  0.45614419  0.82502747  0.34456655     0.07300
C1430       C  0.47705237  0.79719693  0.33951005    -0.14800
H1431       H  0.53614053  0.77496125  0.33900379     0.11300
H1432       H  0.53819564  0.87372522  0.34712965     0.11300
H1433       H  0.46290650  0.87439886  0.34792627     0.11300
H1434       H  0.46037785  0.77558534  0.33985194     0.11300
C1435       C  0.24866040  0.99450324  0.73404421    -0.14800
C1436       C  0.22778102  0.96839407  0.72170140     0.07300
C1437       C  0.22672878  0.94186678  0.74082507    -0.14800
C1438       C  0.24589477  0.94117415  0.77134316    -0.14800
C1439       C  0.26737879  0.96692860  0.78388910     0.07300
C1440       C  0.26840520  0.99375684  0.76486507    -0.14800
H1441       H  0.25097322  0.01501526  0.71940035     0.11300
H1442       H  0.21155348  0.92124297  0.73179282     0.11300
H1443       H  0.24403448  0.92007628  0.78506975     0.11300
H1444       H  0.28425462  0.01409906  0.77381952     0.11300
C1445       C  0.97846761  0.97751306  0.66430056    -0.14800
C1446       C  0.95709449  0.94995162  0.65774384     0.07300
C1447       C  0.97972644  0.92270369  0.65407197    -0.14800
C1448       C  0.02266018  0.92357234  0.65244392    -0.14800
C1449       C  0.04389969  0.95163542  0.65483940     0.07300
C1450       C  0.02182838  0.97834414  0.66290447    -0.14800
H1451       H  0.96173334  0.99886131  0.66698188     0.11300
H1452       H  0.96404655  0.90109320  0.64926654     0.11300
H1453       H  0.03906024  0.90262637  0.64654361     0.11300
H1454       H  0.03760159  0.00027648  0.66472002     0.11300
C1455       C  0.27988178  0.90723281  0.52127721    -0.14800
C1456       C  0.23793357  0.90699158  0.52869240     0.07300
C1457       C  0.20963720  0.89206328  0.50756161    -0.14800
C1458       C  0.22324219  0.87691794  0.47973210    -0.14800
C1459       C  0.26526731  0.87678110  0.47255197     0.07300
C1460       C  0.29348851  0.89211651  0.49342081    -0.14800
H1461       H  0.30213470  0.91817669  0.53744187     0.11300
H1462       H  0.17688039  0.89175904  0.51282618     0.11300
H1463       H  0.20099337  0.86587029  0.46364043     0.11300
H1464       H  0.32625791  0.89237299  0.48821378     0.11300
C1465       C  0.20787893  0.58042357  0.25322423    -0.14800
C1466       C  0.22363092  0.56154060  0.27763850     0.07300
C1467       C  0.25900425  0.54377611  0.27110095    -0.14800
C1468       C  0.27867594  0.54512988  0.24083570    -0.14800
C1469       C  0.26401340  0.56499275  0.21674300     0.07300
C1470       C  0.22799287  0.58226785  0.22316532    -0.14800
H1471       H  0.18140924  0.59489157  0.25795025     0.11300
H1472       H  0.27224755  0.52952163  0.28994159     0.11300
H1473       H  0.30592422  0.53134039  0.23664158     0.11300
H1474       H  0.21537216  0.59750255  0.20494659     0.11300
C1475       C  0.12059038  0.54058339  0.49316536    -0.14800
C1476       C  0.12778056  0.52278506  0.46481277    -0.05500
C1477       C  0.13274800  0.49104594  0.46826442    -0.14800
C1478       C  0.13135318  0.47750401  0.49910039    -0.14800
C1479       C  0.12576772  0.99537957  0.52774621     0.07300
C1480       C  0.11987895  0.52705473  0.52425242    -0.14800
H1481       H  0.11725650  0.56525718  0.49146612     0.11300
H1482       H  0.13853135  0.47668680  0.44713516     0.11300
H1483       H  0.13612228  0.95301471  0.50051434     0.11300
H1484       H  0.11607101  0.54155787  0.54555350     0.11300
C1485       C  0.30104200  0.48305061  0.39823728    -0.14800
C1486       C  0.27567294  0.49442901  0.37330634     0.07300
C1487       C  0.27118352  0.97691242  0.34449282    -0.14800
C1488       C  0.28757085  0.94743434  0.34189260    -0.14800
C1489       C  0.30975158  0.93492508  0.36778950     0.07300
C1490       C  0.31759858  0.95327905  0.39565056    -0.14800
H1491       H  0.30501013  0.49590300  0.42072567     0.11300
H1492       H  0.25227020  0.98513418  0.32455796     0.11300
H1493       H  0.28034700  0.93355956  0.32057377     0.11300
H1494       H  0.33369416  0.94363063  0.41636944     0.11300
C1495       C  0.18847332  0.70341625  0.39140128    -0.14800
C1496       C  0.21151831  0.68142458  0.37373372     0.07300
C1497       C  0.24677501  0.69125130  0.35703465    -0.14800
C1498       C  0.26053332  0.72159163  0.36011738    -0.14800
C1499       C  0.23908886  0.74293011  0.37947712     0.07300
C1500       C  0.20208137  0.73401063  0.39413875    -0.14800
H1501       H  0.16105519  0.69662246  0.40454615     0.11300
H1502       H  0.26526215  0.67508197  0.34330816     0.11300
H1503       H  0.28912281  0.72815547  0.34841438     0.11300
H1504       H  0.18514457  0.75009075  0.40918020     0.11300
C1505       C  0.29531241  0.69867686  0.74936138    -0.14800
C1506       C  0.28335307  0.72090836  0.72690163     0.07300
C1507       C  0.25199943  0.74177542  0.73538500    -0.14800
C1508       C  0.23253348  0.74027512  0.76574920    -0.14800
C1509       C  0.24328456  0.71723188  0.78787030     0.07300
C1510       C  0.27543953  0.69678858  0.77946487    -0.14800
H1511       H  0.31842437  0.68178391  0.74296528     0.11300
H1512       H  0.24145405  0.75854327  0.71793227     0.11300
H1513       H  0.20834317  0.75651039  0.77148796     0.11300
H1514       H  0.28500572  0.67889770  0.79602558     0.11300
C1515       C  0.25390094  0.59191101  0.64464131    -0.14800
C1516       C  0.29073178  0.60092588  0.62955558     0.07300
C1517       C  0.31402887  0.57825010  0.61307657    -0.14800
C1518       C  0.29963304  0.54771833  0.61042442    -0.14800
C1519       C  0.26133915  0.53957294  0.62368087     0.07300
C1520       C  0.23928478  0.56177786  0.64145890    -0.14800
H1521       H  0.23500720  0.60857665  0.65730841     0.11300
H1522       H  0.34253511  0.58440578  0.60105499     0.11300
H1523       H  0.31706109  0.03114771  0.59634816     0.11300
H1524       H  0.20975360  0.55596671  0.65212731     0.11300
C1525       C  0.21498407  0.83508693  0.66120305    -0.14800
C1526       C  0.19212621  0.84669968  0.63521609     0.07300
C1527       C  0.18347326  0.82751967  0.60816284    -0.14800
C1528       C  0.20064795  0.79791533  0.60602548    -0.14800
C1529       C  0.22673035  0.78744596  0.63093917     0.07300
C1530       C  0.23171951  0.80572966  0.65923743    -0.14800
H1531       H  0.22263280  0.84962269  0.68193372     0.11300
H1532       H  0.16666839  0.83647300  0.58743353     0.11300
H1533       H  0.19645328  0.78447538  0.58394679     0.11300
H1534       H  0.25148455  0.79830158  0.67899578     0.11300
C1535       C  0.38784589  0.74300980  0.51093351    -0.14800
C1536       C  0.37556538  0.76030566  0.53851543     0.07300
C1537       C  0.36562500  0.79129902  0.53401349    -0.14800
C1538       C  0.36679220  0.80441012  0.50293152    -0.14800
C1539       C  0.37723427  0.78689339  0.47500894     0.07300
C1540       C  0.38831871  0.75604437  0.47955842    -0.14800
H1541       H  0.39537568  0.71892709  0.51336487     0.11300
H1542       H  0.35586059  0.80531207  0.55444898     0.11300
H1543       H  0.35768017  0.82821082  0.50069565     0.11300
H1544       H  0.39626994  0.74178202  0.45882719     0.11300
C1545       C  0.21724100  0.62206464  0.50505356    -0.14800
C1546       C  0.24026182  0.62196379  0.47620305     0.07300
C1547       C  0.27450254  0.64166176  0.47344795    -0.14800
C1548       C  0.28560227  0.66107382  0.49912697    -0.14800
C1549       C  0.26271363  0.66106637  0.52804234     0.07300
C1550       C  0.22835832  0.64147166  0.53074990    -0.14800
H1551       H  0.19035878  0.60740463  0.50763663     0.11300
H1552       H  0.29223135  0.64259108  0.45118236     0.11300
H1553       H  0.31249770  0.67571939  0.49653157     0.11300
H1554       H  0.21066695  0.64052632  0.55303277     0.11300
C1555       C  0.74252832  0.54376902  0.27391222    -0.14800
C1556       C  0.77860065  0.56041378  0.28210952     0.07300
C1557       C  0.79620308  0.57960819  0.25875677    -0.14800
C1558       C  0.77698062  0.58310946  0.22828187    -0.14800
C1559       C  0.74010687  0.56713273  0.22034303     0.07300
C1560       C  0.72379607  0.54674740  0.24323552    -0.14800
H1561       H  0.72815772  0.52899160  0.29172692     0.11300
H1562       H  0.82350137  0.59305173  0.26464068     0.11300
H1563       H  0.79090088  0.59859309  0.21094773     0.11300
H1564       H  0.69590634  0.53383137  0.23781455     0.11300
C1565       C  0.75062653  0.68375212  0.36410066    -0.14800
C1566       C  0.78708650  0.67570401  0.38050594     0.07300
C1567       C  0.80910492  0.69887137  0.39764706    -0.14800
C1568       C  0.79393573  0.72908335  0.39938949    -0.14800
C1569       C  0.75614451  0.73630266  0.38456344     0.07300
C1570       C  0.73522751  0.71355397  0.36637288    -0.14800
H1571       H  0.73271696  0.66662949  0.35089011     0.11300
H1572       H  0.83723968  0.69337912  0.41071265     0.11300
H1573       H  0.81049421  0.74624859  0.41359355     0.11300
H1574       H  0.70609664  0.71871447  0.35451440     0.11300
C1575       C  0.73131675  0.47098575  0.35080975    -0.14800
C1576       C  0.72915508  0.48860862  0.37973790     0.07300
C1577       C  0.70552622  0.97743507  0.40558212    -0.14800
C1578       C  0.68759241  0.94798145  0.40346229    -0.14800
C1579       C  0.69283585  0.92958313  0.37539572     0.07300
C1580       C  0.71391198  0.94164961  0.34880788    -0.14800
H1581       H  0.74889889  0.47912105  0.33019891     0.11300
H1582       H  0.70349460  0.99037733  0.42813680     0.11300
H1583       H  0.67245834  0.93860150  0.42466922     0.11300
H1584       H  0.71914904  0.92763873  0.32731200     0.11300
C1585       C  0.89086090  0.53301076  0.49615413    -0.14800
C1586       C  0.87858486  0.51646551  0.46793262     0.07300
C1587       C  0.86844557  0.48529495  0.47134398    -0.14800
C1588       C  0.86877481  0.97140326  0.50207054    -0.14800
C1589       C  0.87869141  0.98829936  0.53060835     0.07300
C1590       C  0.89065241  0.51917460  0.52709478    -0.14800
H1591       H  0.89862465  0.55716347  0.49458789     0.11300
H1592       H  0.85875970  0.47182463  0.45035088     0.11300
H1593       H  0.85923874  0.94758851  0.50354745     0.11300
H1594       H  0.89834348  0.53295931  0.54835530     0.11300
C1595       C  0.02245604  0.61481166  0.36789502    -0.14800
C1596       C  0.04443039  0.58889709  0.35701536     0.07300
C1597       C  0.02220157  0.56380036  0.34412637    -0.14800
C1598       C  0.97921351  0.56312524  0.34541643    -0.14800
C1599       C  0.95728120  0.58752272  0.35959689     0.07300
C1600       C  0.97912188  0.61412599  0.36921111    -0.14800
H1601       H  0.03872607  0.63456740  0.37784328     0.11300
H1602       H  0.03810163  0.54362624  0.33515346     0.11300
H1603       H  0.96334571  0.54247297  0.33730248     0.11300
H1604       H  0.96306924  0.63339694  0.38004654     0.11300
C1605       C  0.76892469  0.68946939  0.76803656    -0.14800
C1606       C  0.77204280  0.71781482  0.78438095     0.07300
C1607       C  0.75414461  0.74381513  0.76990376    -0.14800
C1608       C  0.73334807  0.74124456  0.73966098    -0.14800
C1609       C  0.73033142  0.71265845  0.72339930     0.07300
C1610       C  0.74863503  0.68694689  0.73807557    -0.14800
H1611       H  0.78183565  0.66894826  0.77878193     0.11300
H1612       H  0.75513194  0.76580322  0.78239882     0.11300
H1613       H  0.72023798  0.76161574  0.72879993     0.11300
H1614       H  0.74742569  0.66461509  0.72630039     0.11300
C1615       C  0.62090742  0.72816344  0.50118387    -0.14800
C1616       C  0.61999692  0.74453732  0.53109599     0.07300
C1617       C  0.61227494  0.77619276  0.53010367    -0.14800
C1618       C  0.60883623  0.79134796  0.50007985    -0.14800
C1619       C  0.61302622  0.77529466  0.47018773     0.07300
C1620       C  0.61749204  0.74330231  0.47121198    -0.14800
H1621       H  0.62642215  0.70365271  0.50078113     0.11300
H1622       H  0.61115414  0.78954209  0.55243772     0.11300
H1623       H  0.60526400  0.81606605  0.50033600     0.11300
H1624       H  0.62114414  0.73019027  0.44889970     0.11300
C1625       C  0.74468097  0.80726777  0.65253707    -0.14800
C1626       C  0.76461284  0.78580164  0.63258101     0.07300
C1627       C  0.80427680  0.79242612  0.62079796    -0.14800
C1628       C  0.82173999  0.82167351  0.62621510    -0.14800
C1629       C  0.79994742  0.84409178  0.64393524     0.07300
C1630       C  0.76233205  0.83597053  0.65844568    -0.14800
H1631       H  0.71457496  0.80218325  0.66262785     0.11300
H1632       H  0.82037238  0.77584942  0.60578442     0.11300
H1633       H  0.85033761  0.82760134  0.61418507     0.11300
H1634       H  0.74479782  0.85285519  0.67203022     0.11300
C1635       C  0.68797262  0.56966409  0.63809267    -0.14800
C1636       C  0.70504536  0.59306166  0.61907734     0.07300
C1637       C  0.73324666  0.58540558  0.59449646    -0.14800
C1638       C  0.74754342  0.55560972  0.59098392    -0.14800
C1639       C  0.73409705  0.53264185  0.61212238     0.07300
C1640       C  0.70261493  0.53942041  0.63466934    -0.14800
H1641       H  0.66577949  0.57507158  0.65688985     0.11300
H1642       H  0.74594974  0.60295017  0.57890054     0.11300
H1643       H  0.77131145  0.05096895  0.57314295     0.11300
H1644       H  0.69176120  0.52199357  0.65127721     0.11300
C1645       C  0.52465218  0.71720109  0.66272085    -0.14800
C1646       C  0.54514094  0.69222953  0.64839211     0.07300
C1647       C  0.52176846  0.66692868  0.63720212    -0.14800
C1648       C  0.47872714  0.66785438  0.63727807    -0.14800
C1649       C  0.45816629  0.69421672  0.64827733     0.07300
C1650       C  0.48141679  0.71827401  0.66248975    -0.14800
H1651       H  0.54188411  0.73702143  0.67143174     0.11300
H1652       H  0.53676836  0.64725296  0.62620508     0.11300
H1653       H  0.46174052  0.64893940  0.62625822     0.11300
H1654       H  0.46631331  0.73881092  0.67139134     0.11300
C1655       C  0.72929943  0.66131762  0.50239198    -0.14800
C1656       C  0.75366453  0.66142227  0.53072041     0.07300
C1657       C  0.78718123  0.64143754  0.53330962    -0.14800
C1658       C  0.79489390  0.62029637  0.50847283    -0.14800
C1659       C  0.76932005  0.61916190  0.48067358     0.07300
C1660       C  0.73699485  0.64032429  0.47754608    -0.14800
H1661       H  0.70241331  0.67598927  0.50061515     0.11300
H1662       H  0.80511147  0.64039088  0.55564272     0.11300
H1663       H  0.82055100  0.60461213  0.51119401     0.11300
H1664       H  0.71754459  0.64061317  0.45599159     0.11300
loop_ 
_geom_bond_atom_site_label_1 
_geom_bond_atom_site_label_2 
_geom_bond_distance 
_geom_bond_site_symmetry_2 
_ccdc_geom_bond_type 
O1          Cr19   1.954       .  S
O1            C9   1.255       .  A
O2          Cr19   1.964       .  S
O2            C3   1.259       .  A
C3            O4   1.265       .  A
C3          C824   1.445       .  S
O4          Cr20   1.986       .  S
O5          Cr20   2.006       .  S
O5            C6   1.257       .  A
C6            O7   1.255       .  A
C6          C794   1.470       .  S
O7          Cr21   1.971       .  S
O8          Cr21   2.051       .  S
O8            C9   1.278       .  A
C9          C784   1.500       .  S
O10         Cr19   1.969       .  S
O10          C18   1.257       .  A
O11         Cr19   1.989       .  S
O11          C12   1.259       .  A
C12          O13   1.262       .  A
C12         C804   1.472       .  S
O13         Cr20   1.992       .  S
O14         Cr20   1.960       .  S
O14          C15   1.264       .  A
C15          O16   1.280       .  A
C15         C777   1.493       .  S
O16         Cr21   2.056       .  S
O17         Cr21   1.992       .  S
O17          C18   1.261       .  A
C18         C814   1.477       .  S
Cr19         O22   1.779       .  S
Cr20         O22   1.781       .  S
Cr21         O22   1.779       .  S
O23         Cr41   2.012       .  S
O23          C31   1.269       .  A
O24         Cr41   1.980       .  S
O24          C25   1.259       .  A
C25          O26   1.267       .  A
C25         C744   1.484   1_545  S
O26         Cr42   2.015       .  S
O27         Cr42   1.996       .  S
O27          C28   1.262       .  A
C28          O29   1.251       .  A
C28         C827   1.465       .  S
O29         Cr43   1.953       .  S
O30         Cr43   2.006       .  S
O30          C31   1.265       .  A
C31         C754   1.500       .  S
O32         Cr41   1.999       .  S
O32          C40   1.264       .  A
O33         Cr41   2.014       .  S
O33          C34   1.274       .  A
C34          O35   1.265       .  A
C34         C724   1.480       .  S
O35         Cr42   1.995       .  S
O36         Cr42   1.990       .  S
O36          C37   1.267       .  A
C37          O38   1.266       .  A
C37         C734   1.488       .  S
O38         Cr43   2.007       .  S
O39         Cr43   1.982       .  S
O39          C40   1.259       .  A
C40         C767   1.483       .  S
Cr41         O44   1.767       .  S
Cr42         O44   1.779       .  S
Cr43         O44   1.780       .  S
O45         Cr63   2.013       .  S
O45          C53   1.269       .  A
O46         Cr63   1.970       .  S
O46          C47   1.256       .  A
C47          O48   1.267       .  A
C47         C697   1.484       .  S
O48         Cr64   2.018       .  S
O49         Cr64   1.992       .  S
O49          C50   1.263       .  A
C50          O51   1.256       .  A
C50         C717   1.466       .  S
O51         Cr65   1.958       .  S
O52         Cr65   2.006       .  S
O52          C53   1.265       .  A
C53         C704   1.500       .  S
O54         Cr63   2.000       .  S
O54          C62   1.262       .  A
O55         Cr63   2.007       .  S
O55          C56   1.273       .  A
C56          O57   1.265       .  A
C56         C674   1.472       .  S
O57         Cr64   1.991       .  S
O58         Cr64   2.000       .  S
O58          C59   1.268       .  A
C59          O60   1.263       .  A
C59         C684   1.494       .  S
O60         Cr65   2.002       .  S
O61         Cr65   1.977       .  S
O61          C62   1.259       .  A
C62         C817   1.478       .  S
Cr63         O66   1.774       .  S
Cr64         O66   1.781       .  S
Cr65         O66   1.779       .  S
O67         Cr85   1.997       .  S
O67          C75   1.263       .  A
O68         Cr85   1.959       .  S
O68          C69   1.255       .  A
C69          O70   1.261       .  A
C69         C714   1.466       .  S
O70         Cr86   1.989       .  S
O71         Cr86   2.024       .  S
O71          C72   1.269       .  A
C72          O73   1.256       .  A
C72         C654   1.488   1_545  S
O73         Cr87   1.971       .  S
O74         Cr87   2.013       .  S
O74          C75   1.269       .  A
C75         C644   1.495       .  S
O76         Cr85   1.982       .  S
O76          C84   1.258       .  A
O77         Cr85   1.990       .  S
O77          C78   1.262       .  A
C78          O79   1.268       .  A
C78         C664   1.488       .  S
O79         Cr86   2.000       .  S
O80         Cr86   1.985       .  S
O80          C81   1.263       .  A
C81          O82   1.275       .  A
C81         C634   1.476       .  S
O82         Cr87   2.014       .  S
O83         Cr87   1.999       .  S
O83          C84   1.264       .  A
C84         C764   1.483       .  S
Cr85         O88   1.783       .  S
Cr86         O88   1.782       .  S
Cr87         O88   1.771       .  S
O89        Cr107   1.950       .  S
O89          C97   1.255       .  A
O90        Cr107   1.962       .  S
O90          C91   1.256       .  A
C91          O92   1.268       .  A
C91         C624   1.460       .  S
O92        Cr108   1.996       .  S
O93        Cr108   2.042       .  S
O93          C94   1.264       .  A
C94          O95   1.247       .  A
C94        C1519   1.483       .  S
O95        Cr109   1.956       .  S
O96        Cr109   2.052       .  S
O96          C97   1.279       .  A
C97         C647   1.501       .  S
O98        Cr107   1.978       .  S
O98         C106   1.259       .  A
O99        Cr107   1.976       .  S
O99         C100   1.262       .  A
C100        O101   1.270       .  A
C100        C694   1.470       .  S
O101       Cr108   2.018       .  S
O102       Cr108   1.957       .  S
O102        C103   1.262       .  A
C103        O104   1.282       .  A
C103        C604   1.488       .  S
O104       Cr109   2.064       .  S
O105       Cr109   1.990       .  S
O105        C106   1.258       .  A
C106        C617   1.475       .  S
Cr107       O110   1.778       .  S
Cr108       O110   1.778       .  S
Cr109       O110   1.777       .  S
O111       Cr129   2.048       .  S
O111        C119   1.277       .  A
O112       Cr129   1.953       .  S
O112        C113   1.245       .  A
C113        O114   1.261       .  A
C113        C667   1.475       .  S
O114       Cr130   2.035       .  S
O115       Cr130   1.990       .  S
O115        C116   1.270       .  A
C116        O117   1.259       .  A
C116        C627   1.459       .  S
O117       Cr131   1.964       .  S
O118       Cr131   1.956       .  S
O118        C119   1.255       .  A
C119        C707   1.503       .  S
O120       Cr129   1.981       .  S
O120        C128   1.257       .  A
O121       Cr129   2.067       .  S
O121        C122   1.283       .  A
C122        O123   1.263       .  A
C122        C584   1.489       .  S
O123       Cr130   1.951       .  S
O124       Cr130   2.013       .  S
O124        C125   1.267       .  A
C125        O126   1.262       .  A
C125        C657   1.474       .  S
O126       Cr131   1.983       .  S
O127       Cr131   1.978       .  S
O127        C128   1.260       .  A
C128        C597   1.471       .  S
Cr129       O132   1.780       .  S
Cr130       O132   1.779       .  S
Cr131       O132   1.777       .  S
O133       Cr151   2.040       .  S
O133        C141   1.275       .  A
O134       Cr151   1.968       .  S
O134        C135   1.252       .  A
C135        O136   1.255       .  A
C135       C1639   1.475       .  S
O136       Cr152   2.007       .  S
O137       Cr152   1.988       .  S
O137        C138   1.267       .  A
C138        O139   1.257       .  A
C138        C574   1.454       .  S
O139       Cr153   1.960       .  S
O140       Cr153   1.967       .  S
O140        C141   1.258       .  A
C141        C757   1.502       .  S
O142       Cr151   1.995       .  S
O142        C150   1.261       .  A
O143       Cr151   2.061       .  S
O143        C144   1.281       .  A
C144        O145   1.261       .  A
C144        C564   1.484       .  S
O145       Cr152   1.946       .  S
O146       Cr152   1.983       .  S
O146        C147   1.262       .  A
C147        O148   1.265       .  A
C147        C797   1.473       .  S
O148       Cr153   1.994       .  S
O149       Cr153   1.972       .  S
O149        C150   1.259       .  A
C150        C614   1.478       .  S
Cr151       O154   1.778       .  S
Cr152       O154   1.776       .  S
Cr153       O154   1.777       .  S
O155       Cr173   1.958       .  S
O155        C163   1.256       .  A
O156       Cr173   1.960       .  S
O156        C157   1.257       .  A
C157        O158   1.267       .  A
C157        C577   1.455       .  S
O158       Cr174   1.987       .  S
O159       Cr174   2.036       .  S
O159        C160   1.263       .  A
C160        O161   1.246       .  A
C160        C737   1.477       .  S
O161       Cr175   1.951       .  S
O162       Cr175   2.042       .  S
O162        C163   1.277       .  A
C163        C787   1.497       .  S
O164       Cr173   1.976       .  S
O164        C172   1.259       .  A
O165       Cr173   1.984       .  S
O165        C166   1.264       .  A
C166        O167   1.267       .  A
C166        C747   1.471       .  S
O167       Cr174   2.011       .  S
O168       Cr174   1.954       .  S
O168        C169   1.261       .  A
C169        O170   1.281       .  A
C169        C554   1.490       .  S
O170       Cr175   2.062       .  S
O171       Cr175   1.981       .  S
O171        C172   1.257       .  A
C172        C594   1.467       .  S
Cr173       O176   1.778       .  S
Cr174       O176   1.779       .  S
Cr175       O176   1.778       .  S
O177       Cr195   1.971       .  S
O177        C185   1.260       .  A
O178       Cr195   1.956       .  S
O178        C179   1.256       .  A
C179        O180   1.268       .  A
C179        C544   1.458       .  S
O180       Cr196   1.992       .  S
O181       Cr196   2.014       .  S
O181        C182   1.256       .  A
C182        O183   1.250       .  A
C182        C514   1.477       .  S
O183       Cr197   1.963       .  S
O184       Cr197   2.040       .  S
O184        C185   1.277       .  A
C185        C504   1.503       .  S
O186       Cr195   1.971       .  S
O186        C194   1.257       .  A
O187       Cr195   2.002       .  S
O187        C188   1.267       .  A
C188        O189   1.263       .  A
C188        C524   1.478       .  S
O189       Cr196   1.983       .  S
O190       Cr196   1.952       .  S
O190        C191   1.261       .  A
C191        O192   1.281       .  A
C191        C774   1.485       .  S
O192       Cr197   2.058       .  S
O193       Cr197   1.998       .  S
O193        C194   1.260       .  A
C194        C534   1.479       .  S
Cr195       O198   1.783       .  S
Cr196       O198   1.782       .  S
Cr197       O198   1.784       .  S
O199       Cr217   2.047       .  S
O199        C207   1.277       .  A
O200       Cr217   1.970       .  S
O200        C201   1.253       .  A
C201        O202   1.258       .  A
C201        C474   1.483   1_545  S
O202       Cr218   2.019       .  S
O203       Cr218   1.991       .  S
O203        C204   1.267       .  A
C204        O205   1.255       .  A
C204        C547   1.458       .  S
O205       Cr219   1.956       .  S
O206       Cr219   1.966       .  S
O206        C207   1.259       .  A
C207        C484   1.505       .  S
O208       Cr217   1.998       .  S
O208        C216   1.260       .  A
O209       Cr217   2.048       .  S
O209        C210   1.281       .  A
C210        O211   1.263       .  A
C210        C727   1.490       .  S
O211       Cr218   1.959       .  S
O212       Cr218   1.999       .  S
O212        C213   1.266       .  A
C213        O214   1.266       .  A
C213        C464   1.476       .  S
O214       Cr219   1.990       .  S
O215       Cr219   1.975       .  S
O215        C216   1.257       .  A
C216        C494   1.481       .  S
Cr217       O220   1.784       .  S
Cr218       O220   1.786       .  S
Cr219       O220   1.786       .  S
O221       Cr239   2.039       .  S
O221        C229   1.276       .  A
O222       Cr239   1.962       .  S
O222        C223   1.251       .  A
C223        O224   1.256       .  A
C223        C434   1.476       .  S
O224       Cr240   2.014       .  S
O225       Cr240   1.985       .  S
O225        C226   1.266       .  A
C226        O227   1.256       .  A
C226        C454   1.448       .  S
O227       Cr241   1.957       .  S
O228       Cr241   1.963       .  S
O228        C229   1.258       .  A
C229        C444   1.499       .  S
O230       Cr239   1.991       .  S
O230        C238   1.259       .  A
O231       Cr239   2.053       .  S
O231        C232   1.281       .  A
C232        O233   1.259       .  A
C232        C677   1.488       .  S
O233       Cr240   1.947       .  S
O234       Cr240   1.983       .  S
O234        C235   1.263       .  A
C235        O236   1.267       .  A
C235        C427   1.474       .  S
O236       Cr241   1.997       .  S
O237       Cr241   1.977       .  S
O237        C238   1.258       .  A
C238        C537   1.479       .  S
Cr239       O242   1.781       .  S
Cr240       O242   1.784       .  S
Cr241       O242   1.782       .  S
O243       Cr261   1.964       .  S
O243        C251   1.257       .  A
O244       Cr261   1.960       .  S
O244        C245   1.259       .  A
C245        O246   1.267       .  A
C245        C457   1.448       .  S
O246       Cr262   1.984       .  S
O247       Cr262   2.000       .  S
O247        C248   1.252       .  A
C248        O249   1.251       .  A
C248        C404   1.472   1_545  S
O249       Cr263   1.969       .  S
O250       Cr263   2.039       .  S
O250        C251   1.276       .  A
C251        C397   1.502       .  S
O252       Cr261   1.973       .  S
O252        C260   1.257       .  A
O253       Cr261   1.999       .  S
O253        C254   1.263       .  A
C254        O255   1.258       .  A
C254        C414   1.474       .  S
O255       Cr262   1.971       .  S
O256       Cr262   1.950       .  S
O256        C257   1.262       .  A
C257        O258   1.283       .  A
C257        C637   1.488       .  S
O258       Cr263   2.054       .  S
O259       Cr263   1.996       .  S
O259        C260   1.260       .  A
C260        C497   1.482       .  S
Cr261       O264   1.787       .  S
Cr262       O264   1.787       .  S
Cr263       O264   1.783       .  S
O265       Cr283   1.965       .  S
O265        C273   1.258       .  A
O266       Cr283   1.963       .  S
O266        C267   1.258       .  A
C267        O268   1.269       .  A
C267        C384   1.463       .  S
O268       Cr284   1.994       .  S
O269       Cr284   2.007       .  S
O269        C270   1.254       .  A
C270        O271   1.250       .  A
C270       C1256   1.473       .  S
O271       Cr285   1.964       .  S
O272       Cr285   2.045       .  S
O272        C273   1.278       .  A
C273        C394   1.504       .  S
O274       Cr283   1.974       .  S
O274        C282   1.257       .  A
O275       Cr283   1.997       .  S
O275        C276   1.266       .  A
C276        O277   1.262       .  A
C276        C437   1.476       .  S
O277       Cr284   1.981       .  S
O278       Cr284   1.957       .  S
O278        C279   1.264       .  A
C279        O280   1.283       .  A
C279        C607   1.499       .  S
O280       Cr285   2.063       .  S
O281       Cr285   1.990       .  S
O281        C282   1.258       .  A
C282        C377   1.478       .  S
Cr283       O286   1.786       .  S
Cr284       O286   1.781       .  S
Cr285       O286   1.784       .  S
O287       Cr305   2.034       .  S
O287        C295   1.274       .  A
O288       Cr305   1.966       .  S
O288        C289   1.252       .  A
C289        O290   1.254       .  A
C289        C417   1.473       .  S
O290       Cr306   2.003       .  S
O291       Cr306   1.996       .  S
O291        C292   1.269       .  A
C292        O293   1.257       .  A
C292        C387   1.465       .  S
O293       Cr307   1.960       .  S
O294       Cr307   1.969       .  S
O294        C295   1.259       .  A
C295        C447   1.499       .  S
O296       Cr305   1.994       .  S
O296        C304   1.260       .  A
O297       Cr305   2.059       .  S
O297        C298   1.280       .  A
C298        O299   1.261       .  A
C298        C587   1.494       .  S
O299       Cr306   1.951       .  S
O300       Cr306   1.972       .  S
O300        C301   1.260       .  A
C301        O302   1.267       .  A
C301        C407   1.474       .  S
O302       Cr307   1.999       .  S
O303       Cr307   1.977       .  S
O303        C304   1.259       .  A
C304        C364   1.478       .  S
Cr305       O308   1.782       .  S
Cr306       O308   1.778       .  S
Cr307       O308   1.782       .  S
O309       Cr327   2.038       .  S
O309        C317   1.277       .  A
O310       Cr327   1.967       .  S
O310        C311   1.251       .  A
C311        O312   1.254       .  A
C311       C1359   1.477       .  S
O312       Cr328   2.008       .  S
O313       Cr328   1.994       .  S
O313        C314   1.269       .  A
C314        O315   1.256       .  A
C314        C354   1.457       .  S
O315       Cr329   1.955       .  S
O316       Cr329   1.973       .  S
O316        C317   1.260       .  A
C317        C487   1.503       .  S
O318       Cr327   1.992       .  S
O318        C326   1.258       .  A
O319       Cr327   2.051       .  S
O319        C320   1.280       .  A
C320        O321   1.264       .  A
C320        C567   1.490       .  S
O321       Cr328   1.955       .  S
O322       Cr328   1.983       .  S
O322        C323   1.262       .  A
C323        O324   1.266       .  A
C323        C517   1.479       .  S
O324       Cr329   2.001       .  S
O325       Cr329   1.970       .  S
O325        C326   1.256       .  A
C326        C374   1.477       .  S
Cr327       O330   1.786       .  S
Cr328       O330   1.782       .  S
Cr329       O330   1.788       .  S
O331       Cr349   1.977       .  S
O331        C339   1.260       .  A
O332       Cr349   1.953       .  S
O332        C333   1.256       .  A
C333        O334   1.270       .  A
C333        C357   1.459       .  S
O334       Cr350   1.997       .  S
O335       Cr350   2.012       .  S
O335        C336   1.256       .  A
C336        O337   1.251       .  A
C336        C467   1.475       .  S
O337       Cr351   1.970       .  S
O338       Cr351   2.037       .  S
O338        C339   1.275       .  A
C339        C507   1.505       .  S
O340       Cr349   1.977       .  S
O340        C348   1.259       .  A
O341       Cr349   2.005       .  S
O341        C342   1.268       .  A
C342        O343   1.262       .  A
C342        C477   1.484       .  S
O343       Cr350   1.985       .  S
O344       Cr350   1.964       .  S
O344        C345   1.265       .  A
C345        O346   1.280       .  A
C345        C557   1.495       .  S
O346       Cr351   2.053       .  S
O347       Cr351   1.991       .  S
O347        C348   1.260       .  A
C348        C367   1.479       .  S
Cr349       O352   1.787       .  S
Cr350       O352   1.783       .  S
Cr351       O352   1.788       .  S
C353        C354   1.393       .  A
C353        C358   1.389   1_556  A
C353        H359   1.083       .  S
C354        C355   1.411   1_556  A
C355        C356   1.391       .  A
C355        H360   1.084   1_554  S
C356        C357   1.394       .  A
C356        H361   1.083       .  S
C357        C358   1.412       .  A
C358        H362   1.084       .  S
C363        C364   1.404       .  A
C363        C368   1.394   1_455  A
C363        H369   1.084       .  S
C364        C365   1.406       .  A
C365        C366   1.406   1_455  A
C365        H370   1.083       .  S
C366        C367   1.407       .  A
C366        H371   1.083       .  S
C367        C368   1.403       .  A
C368        H372   1.084       .  S
C373        C374   1.406       .  A
C373        C378   1.404       .  A
C373        H379   1.083       .  S
C374        C375   1.404       .  A
C375        C376   1.394       .  A
C375        H380   1.084       .  S
C376        C377   1.404       .  A
C376        H381   1.084       .  S
C377        C378   1.406       .  A
C378        H382   1.083       .  S
C383        C384   1.412       .  A
C383        C388   1.392   1_556  A
C383        H389   1.083       .  S
C384        C385   1.394       .  A
C385        C386   1.390   1_556  A
C385        H390   1.083       .  S
C386        C387   1.412       .  A
C386        H391   1.083       .  S
C387        C388   1.395       .  A
C388        H392   1.083       .  S
C393        C398   1.408   1_556  A
C393       C1226   1.404   1_545  A
C393        H399   1.083       .  S
C394        C395   1.416   1_556  A
C394       C1225   1.404       .  A
C395       C1228   1.406       .  A
C395        H400   1.083       .  S
C396        C397   1.403   1_565  A
C396       C1227   1.407       .  A
C396       H1233   1.083       .  S
C397        C398   1.416       .  A
C398        H402   1.083       .  S
H401       C1228   1.083       .  S
C403        C408   1.389       .  A
C403       C1236   1.399       .  A
C403        H409   1.084       .  S
C404        C405   1.407       .  A
C404       C1235   1.399       .  A
C405       C1238   1.409       .  A
C405        H410   1.083   1_565  S
C406        C407   1.407       .  A
C406       C1237   1.409       .  A
C406        H411   1.083       .  S
C407        C408   1.405       .  A
C408        H412   1.084       .  S
C413        C414   1.408       .  A
C413        C418   1.384       .  A
C413        H419   1.083       .  S
C414        C415   1.402       .  A
C415        C416   1.409       .  A
C415        H420   1.083       .  S
C416        C417   1.412       .  A
C416        H421   1.083       .  S
C417        C418   1.397       .  A
C418        H422   1.084       .  S
C423        C424   1.406       .  A
C423        C428   1.409       .  A
C423       H1261   1.083       .  S
C424       C1102   1.474       .  S
C424        C425   1.401       .  A
C425        C426   1.389       .  A
C425        H430   1.084       .  S
C426        C427   1.403       .  A
C426        H431   1.084       .  S
C427        C428   1.408       .  A
C428        H432   1.083       .  S
H429       C1255   1.083       .  S
C433        C434   1.406       .  A
C433        C438   1.410       .  A
C433        H439   1.083       .  S
C434        C435   1.401       .  A
C435        C436   1.389       .  A
C435        H440   1.084       .  S
C436        C437   1.403       .  A
C436        H441   1.084       .  S
C437        C438   1.408       .  A
C438        H442   1.083       .  S
C443        C444   1.414   1_554  A
C443        C448   1.405       .  A
C443        H449   1.083       .  S
C444        C445   1.404       .  A
C445        C446   1.406   1_556  A
C445        H450   1.083       .  S
C446        C447   1.414       .  A
C446        H451   1.083       .  S
C447        C448   1.404       .  A
C448        H452   1.083       .  S
C453        C454   1.396       .  A
C453        C458   1.390       .  A
C453        H459   1.084       .  S
C454        C455   1.406   1_556  A
C455        C456   1.390       .  A
C455        H460   1.084       .  S
C456        C457   1.396       .  A
C456        H461   1.084       .  S
C457        C458   1.406   1_554  A
C458        H462   1.084       .  S
C463        C464   1.402       .  A
C463        C468   1.394       .  A
C463        H469   1.084       .  S
C464        C465   1.410       .  A
C465        C466   1.409       .  A
C465        H470   1.083       .  S
C466        C467   1.404       .  A
C466        H471   1.083       .  S
C467        C468   1.402       .  A
C468        H472   1.084       .  S
C473        C474   1.408       .  A
C473       C1310   1.414       .  A
C473        H479   1.083   1_565  S
C474       C1307   1.402       .  A
C475        C476   1.392       .  A
C475       C1306   1.402       .  A
C475        H480   1.084       .  S
C476        C477   1.405       .  A
C476        H481   1.084       .  S
C477        C478   1.411       .  A
C478       C1305   1.414       .  A
C478        H482   1.083       .  S
C483        C484   1.415       .  A
C483        C488   1.406   1_554  A
C483        H489   1.083       .  S
C484        C485   1.406       .  A
C485       C1318   1.410   1_545  A
C485        H490   1.083   1_545  S
C486        C487   1.415   1_554  A
C486       C1317   1.410       .  A
C486        H491   1.083       .  S
C487       C1320   1.404       .  A
C488       C1319   1.404       .  A
C488        H492   1.083       .  S
C493        C494   1.405       .  A
C493        C498   1.395       .  A
C493        H499   1.084       .  S
C494        C495   1.406       .  A
C495        C496   1.406       .  A
C495        H500   1.083       .  S
C496        C497   1.407       .  A
C496        H501   1.083       .  S
C497        C498   1.405       .  A
C498        H502   1.084       .  S
C503        C504   1.406       .  A
C503        C508   1.409   1_556  A
C503        H509   1.083       .  S
C504        C505   1.414   1_556  A
C505        C506   1.407       .  A
C505        H510   1.083       .  S
C506        C507   1.405       .  A
C506        H511   1.083       .  S
C507        C508   1.415       .  A
C508        H512   1.083       .  S
C513        C514   1.401       .  A
C513        C518   1.389       .  A
C513        H519   1.084       .  S
C514        C515   1.407       .  A
C515        C516   1.412       .  A
C515        H520   1.083       .  S
C516        C517   1.409       .  A
C516        H521   1.083       .  S
C517        C518   1.404       .  A
C518        H522   1.084       .  S
C523        C524   1.404       .  A
C523        C528   1.391       .  A
C523        H529   1.084       .  S
C524        C525   1.408       .  A
C525        C526   1.411       .  A
C525        H530   1.083       .  S
C526        C527   1.407       .  A
C526       H1363   1.083       .  S
C527       C1143   1.478       .  S
C527        C528   1.401       .  A
C528        H532   1.084       .  S
H531       C1358   1.083       .  S
C533        C534   1.406       .  A
C533        C538   1.407   1_655  A
C533        H539   1.083       .  S
C534        C535   1.404       .  A
C535        C536   1.394   1_655  A
C535        H540   1.084       .  S
C536        C537   1.403       .  A
C536        H541   1.084       .  S
C537        C538   1.408       .  A
C538        H542   1.083       .  S
C543        C544   1.394       .  A
C543        C548   1.390   1_556  A
C543        H549   1.083       .  S
C544        C545   1.411       .  A
C545        C546   1.389   1_556  A
C545        H550   1.084       .  S
C546        C547   1.394       .  A
C546        H551   1.083       .  S
C547        C548   1.411       .  A
C548        H552   1.084       .  S
C553        C554   1.405       .  A
C553        C558   1.395       .  A
C553        H559   1.084       .  S
C554        C555   1.409       .  A
C555        C556   1.414       .  A
C555        H560   1.083       .  S
C556        C557   1.411       .  A
C556        H561   1.083       .  S
C557        C558   1.406       .  A
C558        H562   1.083       .  S
C563        C564   1.409       .  A
C563        C568   1.413       .  A
C563        H569   1.083       .  S
C564        C565   1.403       .  A
C565        C566   1.391       .  A
C565        H570   1.084       .  S
C566        C567   1.406       .  A
C566        H571   1.083       .  S
C567        C568   1.410       .  A
C568        H572   1.083       .  S
C573        C574   1.409       .  A
C573        C578   1.388       .  A
C573        H579   1.084       .  S
C574        C575   1.393       .  A
C575        C576   1.389       .  A
C575        H580   1.083       .  S
C576        C577   1.410       .  A
C576        H581   1.084       .  S
C577        C578   1.394       .  A
C578        H582   1.083       .  S
C583        C584   1.411       .  A
C583        C588   1.416       .  A
C583        H589   1.083       .  S
C584        C585   1.403       .  A
C585        C586   1.390       .  A
C585        H590   1.084       .  S
C586        C587   1.406       .  A
C586        H591   1.083       .  S
C587        C588   1.411       .  A
C588        H592   1.083       .  S
C593        C594   1.405       .  A
C593        C598   1.402       .  A
C593        H599   1.083       .  S
C594        C595   1.401       .  A
C595        C596   1.392       .  A
C595        H600   1.084       .  S
C596        C597   1.402       .  A
C596        H601   1.084       .  S
C597        C598   1.405       .  A
C598        H602   1.083       .  S
C603        C604   1.410       .  A
C603        C608   1.415       .  A
C603        H609   1.083       .  S
C604        C605   1.402       .  A
C605        C606   1.395       .  A
C605        H610   1.084       .  S
C606        C607   1.410       .  A
C606        H611   1.083       .  S
C607        C608   1.411       .  A
C608        H612   1.083       .  S
C613        C614   1.406       .  A
C613        C618   1.406   1_655  A
C613        H619   1.083       .  S
C614        C615   1.405       .  A
C615        C616   1.392   1_655  A
C615        H620   1.084       .  S
C616        C617   1.402       .  A
C616        H621   1.084       .  S
C617        C618   1.406       .  A
C618        H622   1.083       .  S
C623        C624   1.393       .  A
C623        C628   1.390       .  A
C623        H629   1.083       .  S
C624        C625   1.411       .  A
C625        C626   1.390       .  A
C625        H630   1.084       .  S
C626        C627   1.394       .  A
C626        H631   1.083       .  S
C627        C628   1.411       .  A
C628        H632   1.083       .  S
C633        C634   1.397       .  A
C633        C638   1.401       .  A
C633        H639   1.083       .  S
C634        C635   1.410       .  A
C635        C636   1.401       .  A
C635        H640   1.083       .  S
C636        C637   1.401       .  A
C636        H641   1.083       .  S
C637        C638   1.415       .  A
C638        H642   1.083       .  S
C643        C644   1.414       .  A
C643        C648   1.410       .  A
C643        H649   1.083       .  S
C644        C645   1.400   1_545  A
C645        C646   1.401       .  A
C645        H650   1.083       .  S
C646       C1479   1.416       .  A
C646       H1483   1.083       .  S
C647       C1478   1.416       .  A
C647       C1480   1.405       .  A
C648       C1479   1.405   1_545  A
C648        H652   1.083       .  S
H651       C1478   1.083       .  S
C653        C654   1.403       .  A
C653       C1490   1.410       .  A
C653        H659   1.083       .  S
C654       C1487   1.412       .  A
C655        C656   1.394       .  A
C655       C1486   1.413       .  A
C655        H660   1.083       .  S
C656        C657   1.395       .  A
C656        H661   1.084       .  S
C657        C658   1.412       .  A
C658       C1485   1.410       .  A
C658        H662   1.083       .  S
C663        C664   1.415       .  A
C663        C668   1.405       .  A
C663        H669   1.083       .  S
C664        C665   1.402       .  A
C665        C666   1.397       .  A
C665        H670   1.083       .  S
C666        C667   1.406       .  A
C666        H671   1.084       .  S
C667        C668   1.399       .  A
C668        H672   1.083       .  S
C673        C674   1.396       .  A
C673        C678   1.400       .  A
C673        H679   1.083       .  S
C674        C675   1.409       .  A
C675        C676   1.402       .  A
C675        H680   1.082       .  S
C676        C677   1.402       .  A
C676        H681   1.083       .  S
C677        C678   1.415       .  A
C678        H682   1.083       .  S
C683        C684   1.403       .  A
C683        C688   1.398       .  A
C683        H689   1.083       .  S
C684        C685   1.415       .  A
C685        C686   1.410       .  A
C685        H690   1.083       .  S
C686        C687   1.402       .  A
C686       H1523   1.083       .  S
C687        C926   1.483       .  S
C687        C688   1.406       .  A
C688        H692   1.084       .  S
H691       C1518   1.083       .  S
C693        C694   1.394       .  A
C693        C698   1.392       .  A
C693        H699   1.084       .  S
C694        C695   1.411       .  A
C695        C696   1.408       .  A
C695        H700   1.083       .  S
C696        C697   1.402       .  A
C696        H701   1.083       .  S
C697        C698   1.412       .  A
C698        H702   1.082       .  S
C703        C704   1.415       .  A
C703        C708   1.412       .  A
C703        H709   1.083       .  S
C704        C705   1.402       .  A
C705        C706   1.403       .  A
C705        H710   1.083       .  S
C706        C707   1.416       .  A
C706        H711   1.083       .  S
C707        C708   1.405       .  A
C708        H712   1.083       .  S
C713        C714   1.403       .  A
C713        C718   1.392       .  A
C713        H719   1.083       .  S
C714        C715   1.404       .  A
C715        C716   1.391       .  A
C715        H720   1.083       .  S
C716        C717   1.403       .  A
C716        H721   1.083       .  S
C717        C718   1.404       .  A
C718        H722   1.083       .  S
C723        C724   1.410       .  A
C723        C728   1.402       .  A
C723        H729   1.084       .  S
C724        C725   1.399       .  A
C725        C726   1.404       .  A
C725        H730   1.083       .  S
C726        C727   1.414       .  A
C726        H731   1.083       .  S
C727        C728   1.402       .  A
C728        H732   1.083       .  S
C733        C734   1.403       .  A
C733        C738   1.395       .  A
C733        H739   1.083       .  S
C734        C735   1.414       .  A
C735        C736   1.407       .  A
C735        H740   1.083       .  S
C736        C737   1.401       .  A
C736        H741   1.083       .  S
C737        C738   1.405       .  A
C738        H742   1.084       .  S
C743        C744   1.411       .  A
C743       C1580   1.395       .  A
C743        H749   1.084       .  S
C744       C1577   1.403       .  A
C745        C746   1.408       .  A
C745       C1576   1.403       .  A
C745        H750   1.083       .  S
C746        C747   1.410       .  A
C746        H751   1.083       .  S
C747        C748   1.396       .  A
C748       C1575   1.395       .  A
C748        H752   1.084       .  S
C753        C754   1.414       .  A
C753        C758   1.410       .  A
C753        H759   1.083       .  S
C754        C755   1.403   1_545  A
C755       C1588   1.403       .  A
C755        H760   1.083       .  S
C756        C757   1.413       .  A
C756       C1587   1.403       .  A
C756        H761   1.083       .  S
C757       C1590   1.406       .  A
C758       C1589   1.406   1_545  A
C758        H762   1.083       .  S
C763        C764   1.408       .  A
C763        C768   1.404   1_455  A
C763        H769   1.083       .  S
C764        C765   1.404       .  A
C765        C766   1.393   1_455  A
C765        H770   1.083       .  S
C766        C767   1.405       .  A
C766        H771   1.083       .  S
C767        C768   1.407       .  A
C768        H772   1.083       .  S
C773        C774   1.403       .  A
C773        C778   1.394       .  A
C773        H779   1.084       .  S
C774        C775   1.408       .  A
C775        C776   1.412       .  A
C775        H780   1.083       .  S
C776        C777   1.411       .  A
C776        H781   1.083       .  S
C777        C778   1.407       .  A
C778        H782   1.083       .  S
C783        C784   1.416       .  A
C783        C788   1.404       .  A
C783        H789   1.083       .  S
C784        C785   1.403       .  A
C785        C786   1.407       .  A
C785        H790   1.083       .  S
C786        C787   1.415       .  A
C786        H791   1.083       .  S
C787        C788   1.402       .  A
C788        H792   1.083       .  S
C793        C794   1.400       .  A
C793        C798   1.391       .  A
C793        H799   1.084       .  S
C794        C795   1.404       .  A
C795        C796   1.407       .  A
C795        H800   1.083       .  S
C796        C797   1.407       .  A
C796        H801   1.083       .  S
C797        C798   1.404       .  A
C798        H802   1.084       .  S
C803        C804   1.402       .  A
C803        C808   1.408       .  A
C803        H809   1.083       .  S
C804        C805   1.404       .  A
C805        C806   1.386       .  A
C805        H810   1.082       .  S
C806        C807   1.399       .  A
C806       H1643   1.084       .  S
C807        C967   1.475       .  S
C807        C808   1.411       .  A
C808        H812   1.083       .  S
H811       C1638   1.084       .  S
C813        C814   1.403       .  A
C813        C818   1.401       .  A
C813        H819   1.083       .  S
C814        C815   1.407       .  A
C815        C816   1.394       .  A
C815        H820   1.083       .  S
C816        C817   1.402       .  A
C816        H821   1.083       .  S
C817        C818   1.408       .  A
C818        H822   1.083       .  S
C823        C824   1.401       .  A
C823        C828   1.389       .  A
C823        H829   1.084       .  S
C824        C825   1.398       .  A
C825        C826   1.393       .  A
C825        H830   1.084       .  S
C826        C827   1.406       .  A
C826        H831   1.083       .  S
C827        C828   1.403       .  A
C828        H832   1.083       .  S
O833       Cr851   1.954       .  S
O833        C841   1.255       .  A
O834       Cr851   1.964       .  S
O834        C835   1.259       .  A
C835        O836   1.265       .  A
C835       C1656   1.445       .  S
O836       Cr852   1.986       .  S
O837       Cr852   2.006       .  S
O837        C838   1.257       .  A
C838        O839   1.255       .  A
C838       C1626   1.470       .  S
O839       Cr853   1.971       .  S
O840       Cr853   2.051       .  S
O840        C841   1.278       .  A
C841       C1616   1.500       .  S
O842       Cr851   1.969       .  S
O842        C850   1.257       .  A
O843       Cr851   1.989       .  S
O843        C844   1.259       .  A
C844        O845   1.262       .  A
C844       C1636   1.472       .  S
O845       Cr852   1.992       .  S
O846       Cr852   1.960       .  S
O846        C847   1.264       .  A
C847        O848   1.280       .  A
C847       C1609   1.493       .  S
O848       Cr853   2.056       .  S
O849       Cr853   1.992       .  S
O849        C850   1.261       .  A
C850       C1646   1.477       .  S
Cr851       O854   1.779       .  S
Cr852       O854   1.781       .  S
Cr853       O854   1.779       .  S
O855       Cr873   2.011       .  S
O855        C863   1.269       .  A
O856       Cr873   1.980       .  S
O856        C857   1.259       .  A
C857        O858   1.267       .  A
C857       C1576   1.484       .  S
O858       Cr874   2.015       .  S
O859       Cr874   1.996       .  S
O859        C860   1.262       .  A
C860        O861   1.251       .  A
C860       C1659   1.465       .  S
O861       Cr875   1.953       .  S
O862       Cr875   2.006       .  S
O862        C863   1.265       .  A
C863       C1586   1.500       .  S
O864       Cr873   1.999       .  S
O864        C872   1.264       .  A
O865       Cr873   2.014       .  S
O865        C866   1.274       .  A
C866        O867   1.265       .  A
C866       C1556   1.480       .  S
O867       Cr874   1.995       .  S
O868       Cr874   1.989       .  S
O868        C869   1.267       .  A
C869        O870   1.266       .  A
C869       C1566   1.488       .  S
O870       Cr875   2.007       .  S
O871       Cr875   1.982       .  S
O871        C872   1.259       .  A
C872       C1599   1.483       .  S
Cr873       O876   1.767       .  S
Cr874       O876   1.779       .  S
Cr875       O876   1.779       .  S
O877       Cr895   2.012       .  S
O877        C885   1.269       .  A
O878       Cr895   1.969       .  S
O878        C879   1.256       .  A
C879        O880   1.267       .  A
C879       C1529   1.484       .  S
O880       Cr896   2.018       .  S
O881       Cr896   1.991       .  S
O881        C882   1.263       .  A
C882        O883   1.256       .  A
C882       C1549   1.466       .  S
O883       Cr897   1.958       .  S
O884       Cr897   2.007       .  S
O884        C885   1.265       .  A
C885       C1536   1.500       .  S
O886       Cr895   2.000       .  S
O886        C894   1.262       .  A
O887       Cr895   2.007       .  S
O887        C888   1.273       .  A
C888        O889   1.265       .  A
C888       C1506   1.472       .  S
O889       Cr896   1.992       .  S
O890       Cr896   2.000       .  S
O890        C891   1.268       .  A
C891        O892   1.263       .  A
C891       C1516   1.494       .  S
O892       Cr897   2.002       .  S
O893       Cr897   1.978       .  S
O893        C894   1.259       .  A
C894       C1649   1.478       .  S
Cr895       O898   1.774       .  S
Cr896       O898   1.781       .  S
Cr897       O898   1.779       .  S
O899       Cr917   1.998       .  S
O899        C907   1.263       .  A
O900       Cr917   1.959       .  S
O900        C901   1.255       .  A
C901        O902   1.261       .  A
C901       C1546   1.466       .  S
O902       Cr918   1.989       .  S
O903       Cr918   2.024       .  S
O903        C904   1.269       .  A
C904        O905   1.256       .  A
C904       C1486   1.488       .  S
O905       Cr919   1.971       .  S
O906       Cr919   2.013       .  S
O906        C907   1.269       .  A
C907       C1476   1.495       .  S
O908       Cr917   1.982       .  S
O908        C916   1.258       .  A
O909       Cr917   1.990       .  S
O909        C910   1.262       .  A
C910        O911   1.268       .  A
C910       C1496   1.488       .  S
O911       Cr918   2.000       .  S
O912       Cr918   1.985       .  S
O912        C913   1.263       .  A
C913        O914   1.275       .  A
C913       C1466   1.475       .  S
O914       Cr919   2.014       .  S
O915       Cr919   1.999       .  S
O915        C916   1.263       .  A
C916       C1596   1.483       .  S
Cr917       O920   1.783       .  S
Cr918       O920   1.782       .  S
Cr919       O920   1.771       .  S
O921       Cr939   1.950       .  S
O921        C929   1.255       .  A
O922       Cr939   1.962       .  S
O922        C923   1.256       .  A
C923        O924   1.268       .  A
C923       C1456   1.460       .  S
O924       Cr940   1.996       .  S
O925       Cr940   2.042       .  S
O925        C926   1.264   1_565  A
C926        O927   1.247       .  A
O927       Cr941   1.956   1_545  S
O928       Cr941   2.051       .  S
O928        C929   1.279       .  A
C929       C1479   1.501       .  S
O930       Cr939   1.978       .  S
O930        C938   1.259       .  A
O931       Cr939   1.977       .  S
O931        C932   1.262       .  A
C932        O933   1.270       .  A
C932       C1526   1.470       .  S
O933       Cr940   2.018       .  S
O934       Cr940   1.957       .  S
O934        C935   1.262       .  A
C935        O936   1.282       .  A
C935       C1436   1.488       .  S
O936       Cr941   2.064       .  S
O937       Cr941   1.989       .  S
O937        C938   1.258       .  A
C938       C1449   1.475       .  S
Cr939       O942   1.778       .  S
Cr940       O942   1.778       .  S
Cr941       O942   1.777       .  S
O943       Cr961   2.048       .  S
O943        C951   1.277       .  A
O944       Cr961   1.953       .  S
O944        C945   1.245       .  A
C945        O946   1.261       .  A
C945       C1499   1.475       .  S
O946       Cr962   2.035       .  S
O947       Cr962   1.990       .  S
O947        C948   1.270       .  A
C948        O949   1.259       .  A
C948       C1459   1.459       .  S
O949       Cr963   1.964       .  S
O950       Cr963   1.956       .  S
O950        C951   1.255       .  A
C951       C1539   1.503       .  S
O952       Cr961   1.981       .  S
O952        C960   1.257       .  A
O953       Cr961   2.067       .  S
O953        C954   1.283       .  A
C954        O955   1.263       .  A
C954       C1416   1.490       .  S
O955       Cr962   1.951       .  S
O956       Cr962   2.013       .  S
O956        C957   1.267       .  A
C957        O958   1.262       .  A
C957       C1489   1.474       .  S
O958       Cr963   1.983       .  S
O959       Cr963   1.978       .  S
O959        C960   1.260       .  A
C960       C1429   1.471       .  S
Cr961       O964   1.780       .  S
Cr962       O964   1.779       .  S
Cr963       O964   1.777       .  S
O965       Cr983   2.040       .  S
O965        C973   1.275       .  A
O966       Cr983   1.968   1_545  S
O966        C967   1.252       .  A
C967        O968   1.255   1_545  A
O968       Cr984   2.007       .  S
O969       Cr984   1.988       .  S
O969        C970   1.267       .  A
C970        O971   1.257       .  A
C970       C1406   1.454       .  S
O971       Cr985   1.959       .  S
O972       Cr985   1.967       .  S
O972        C973   1.258       .  A
C973       C1589   1.502       .  S
O974       Cr983   1.995       .  S
O974        C982   1.261       .  A
O975       Cr983   2.061       .  S
O975        C976   1.281       .  A
C976        O977   1.260       .  A
C976       C1396   1.484       .  S
O977       Cr984   1.946       .  S
O978       Cr984   1.983       .  S
O978        C979   1.262       .  A
C979        O980   1.265       .  A
C979       C1629   1.473       .  S
O980       Cr985   1.994       .  S
O981       Cr985   1.972       .  S
O981        C982   1.259       .  A
C982       C1446   1.478       .  S
Cr983       O986   1.778       .  S
Cr984       O986   1.776       .  S
Cr985       O986   1.777       .  S
O987      Cr1005   1.958       .  S
O987        C995   1.256       .  A
O988      Cr1005   1.960       .  S
O988        C989   1.257       .  A
C989        O990   1.267       .  A
C989       C1409   1.456       .  S
O990      Cr1006   1.987       .  S
O991      Cr1006   2.036       .  S
O991        C992   1.263       .  A
C992        O993   1.246       .  A
C992       C1569   1.477       .  S
O993      Cr1007   1.951       .  S
O994      Cr1007   2.042       .  S
O994        C995   1.277       .  A
C995       C1619   1.497       .  S
O996      Cr1005   1.976       .  S
O996       C1004   1.259       .  A
O997      Cr1005   1.984       .  S
O997        C998   1.264       .  A
C998        O999   1.267       .  A
C998       C1579   1.471       .  S
O999      Cr1006   2.011       .  S
O1000     Cr1006   1.954       .  S
O1000      C1001   1.261       .  A
C1001      O1002   1.281       .  A
C1001      C1386   1.490       .  S
O1002     Cr1007   2.062       .  S
O1003     Cr1007   1.981       .  S
O1003      C1004   1.257       .  A
C1004      C1426   1.467       .  S
Cr1005     O1008   1.778       .  S
Cr1006     O1008   1.779       .  S
Cr1007     O1008   1.778       .  S
O1009     Cr1027   1.971       .  S
O1009      C1017   1.260       .  A
O1010     Cr1027   1.956       .  S
O1010      C1011   1.256       .  A
C1011      O1012   1.268       .  A
C1011      C1376   1.458       .  S
O1012     Cr1028   1.992       .  S
O1013     Cr1028   2.014       .  S
O1013      C1014   1.256       .  A
C1014      O1015   1.250       .  A
C1014      C1346   1.477       .  S
O1015     Cr1029   1.963       .  S
O1016     Cr1029   2.040       .  S
O1016      C1017   1.277       .  A
C1017      C1336   1.503       .  S
O1018     Cr1027   1.971       .  S
O1018      C1026   1.257       .  A
O1019     Cr1027   2.002       .  S
O1019      C1020   1.267       .  A
C1020      O1021   1.263       .  A
C1020      C1356   1.478       .  S
O1021     Cr1028   1.983       .  S
O1022     Cr1028   1.952       .  S
O1022      C1023   1.261       .  A
C1023      O1024   1.281       .  A
C1023      C1606   1.485       .  S
O1024     Cr1029   2.058       .  S
O1025     Cr1029   1.998       .  S
O1025      C1026   1.260       .  A
C1026      C1366   1.479       .  S
Cr1027     O1030   1.783       .  S
Cr1028     O1030   1.782       .  S
Cr1029     O1030   1.784       .  S
O1031     Cr1049   2.047       .  S
O1031      C1039   1.277       .  A
O1032     Cr1049   1.970       .  S
O1032      C1033   1.253       .  A
C1033      O1034   1.258       .  A
C1033      C1306   1.483       .  S
O1034     Cr1050   2.019       .  S
O1035     Cr1050   1.991       .  S
O1035      C1036   1.267       .  A
C1036      O1037   1.255       .  A
C1036      C1379   1.458       .  S
O1037     Cr1051   1.956       .  S
O1038     Cr1051   1.966       .  S
O1038      C1039   1.259       .  A
C1039      C1316   1.505       .  S
O1040     Cr1049   1.998       .  S
O1040      C1048   1.260       .  A
O1041     Cr1049   2.048       .  S
O1041      C1042   1.281       .  A
C1042      O1043   1.263       .  A
C1042      C1559   1.490       .  S
O1043     Cr1050   1.959       .  S
O1044     Cr1050   1.999       .  S
O1044      C1045   1.266       .  A
C1045      O1046   1.266       .  A
C1045      C1296   1.476       .  S
O1046     Cr1051   1.990       .  S
O1047     Cr1051   1.975       .  S
O1047      C1048   1.257       .  A
C1048      C1326   1.481       .  S
Cr1049     O1052   1.784       .  S
Cr1050     O1052   1.786       .  S
Cr1051     O1052   1.786       .  S
O1053     Cr1071   2.039       .  S
O1053      C1061   1.276       .  A
O1054     Cr1071   1.962       .  S
O1054      C1055   1.251       .  A
C1055      O1056   1.256       .  A
C1055      C1266   1.476       .  S
O1056     Cr1072   2.014       .  S
O1057     Cr1072   1.985       .  S
O1057      C1058   1.266       .  A
C1058      O1059   1.256       .  A
C1058      C1286   1.448       .  S
O1059     Cr1073   1.957       .  S
O1060     Cr1073   1.963       .  S
O1060      C1061   1.258       .  A
C1061      C1276   1.499       .  S
O1062     Cr1071   1.992       .  S
O1062      C1070   1.259       .  A
O1063     Cr1071   2.053       .  S
O1063      C1064   1.281       .  A
C1064      O1065   1.259       .  A
C1064      C1509   1.489       .  S
O1065     Cr1072   1.948       .  S
O1066     Cr1072   1.983       .  S
O1066      C1067   1.263       .  A
C1067      O1068   1.267       .  A
C1067      C1259   1.474       .  S
O1068     Cr1073   1.997       .  S
O1069     Cr1073   1.977       .  S
O1069      C1070   1.258       .  A
C1070      C1369   1.479       .  S
Cr1071     O1074   1.781       .  S
Cr1072     O1074   1.783       .  S
Cr1073     O1074   1.782       .  S
O1075     Cr1093   1.963       .  S
O1075      C1083   1.257       .  A
O1076     Cr1093   1.960       .  S
O1076      C1077   1.259       .  A
C1077      O1078   1.267       .  A
C1077      C1289   1.448       .  S
O1078     Cr1094   1.984       .  S
O1079     Cr1094   2.000       .  S
O1079      C1080   1.252       .  A
C1080      O1081   1.251       .  A
C1080      C1236   1.472       .  S
O1081     Cr1095   1.969       .  S
O1082     Cr1095   2.039       .  S
O1082      C1083   1.276       .  A
C1083      C1229   1.502       .  S
O1084     Cr1093   1.973       .  S
O1084      C1092   1.257       .  A
O1085     Cr1093   1.999       .  S
O1085      C1086   1.263       .  A
C1086      O1087   1.258       .  A
C1086      C1246   1.474       .  S
O1087     Cr1094   1.971       .  S
O1088     Cr1094   1.950       .  S
O1088      C1089   1.262       .  A
C1089      O1090   1.283       .  A
C1089      C1469   1.488       .  S
O1090     Cr1095   2.054       .  S
O1091     Cr1095   1.996       .  S
O1091      C1092   1.260       .  A
C1092      C1329   1.482       .  S
Cr1093     O1096   1.787       .  S
Cr1094     O1096   1.787       .  S
Cr1095     O1096   1.783       .  S
O1097     Cr1115   1.965       .  S
O1097      C1105   1.258       .  A
O1098     Cr1115   1.962       .  S
O1098      C1099   1.258       .  A
C1099      O1100   1.269       .  A
C1099      C1216   1.463       .  S
O1100     Cr1116   1.994       .  S
O1101     Cr1116   2.008       .  S
O1101      C1102   1.254   1_565  A
C1102      O1103   1.250       .  A
O1103     Cr1117   1.964   1_545  S
O1104     Cr1117   2.045       .  S
O1104      C1105   1.278       .  A
C1105      C1226   1.504       .  S
O1106     Cr1115   1.974       .  S
O1106      C1114   1.257       .  A
O1107     Cr1115   1.997       .  S
O1107      C1108   1.266       .  A
C1108      O1109   1.262       .  A
C1108      C1269   1.476       .  S
O1109     Cr1116   1.981       .  S
O1110     Cr1116   1.957       .  S
O1110      C1111   1.264       .  A
C1111      O1112   1.283       .  A
C1111      C1439   1.499       .  S
O1112     Cr1117   2.063       .  S
O1113     Cr1117   1.990       .  S
O1113      C1114   1.258       .  A
C1114      C1209   1.478       .  S
Cr1115     O1118   1.786       .  S
Cr1116     O1118   1.781       .  S
Cr1117     O1118   1.784       .  S
O1119     Cr1137   2.034       .  S
O1119      C1127   1.274       .  A
O1120     Cr1137   1.966       .  S
O1120      C1121   1.252       .  A
C1121      O1122   1.254       .  A
C1121      C1249   1.473       .  S
O1122     Cr1138   2.003       .  S
O1123     Cr1138   1.996       .  S
O1123      C1124   1.269       .  A
C1124      O1125   1.257       .  A
C1124      C1219   1.464       .  S
O1125     Cr1139   1.960       .  S
O1126     Cr1139   1.969       .  S
O1126      C1127   1.259       .  A
C1127      C1279   1.499       .  S
O1128     Cr1137   1.994       .  S
O1128      C1136   1.260       .  A
O1129     Cr1137   2.059       .  S
O1129      C1130   1.280       .  A
C1130      O1131   1.261       .  A
C1130      C1419   1.494       .  S
O1131     Cr1138   1.951       .  S
O1132     Cr1138   1.972       .  S
O1132      C1133   1.260       .  A
C1133      O1134   1.267       .  A
C1133      C1239   1.474       .  S
O1134     Cr1139   1.999       .  S
O1135     Cr1139   1.977       .  S
O1135      C1136   1.259       .  A
C1136      C1196   1.478       .  S
Cr1137     O1140   1.782       .  S
Cr1138     O1140   1.778       .  S
Cr1139     O1140   1.782       .  S
O1141     Cr1159   2.038   1_545  S
O1141      C1149   1.277   1_545  A
O1142     Cr1159   1.967   1_545  S
O1142      C1143   1.251       .  A
C1143      O1144   1.254   1_545  A
O1144     Cr1160   2.008       .  S
O1145     Cr1160   1.994       .  S
O1145      C1146   1.269       .  A
C1146      O1147   1.256       .  A
C1146      C1186   1.457       .  S
O1147     Cr1161   1.956       .  S
O1148     Cr1161   1.973       .  S
O1148      C1149   1.260       .  A
C1149      C1319   1.503   1_565  S
O1150     Cr1159   1.992       .  S
O1150      C1158   1.258       .  A
O1151     Cr1159   2.051       .  S
O1151      C1152   1.280       .  A
C1152      O1153   1.264       .  A
C1152      C1399   1.490       .  S
O1153     Cr1160   1.955       .  S
O1154     Cr1160   1.983       .  S
O1154      C1155   1.262       .  A
C1155      O1156   1.266       .  A
C1155      C1349   1.479       .  S
O1156     Cr1161   2.001       .  S
O1157     Cr1161   1.970       .  S
O1157      C1158   1.256       .  A
C1158      C1206   1.477       .  S
Cr1159     O1162   1.786       .  S
Cr1160     O1162   1.782       .  S
Cr1161     O1162   1.788       .  S
O1163     Cr1181   1.977       .  S
O1163      C1171   1.260       .  A
O1164     Cr1181   1.953       .  S
O1164      C1165   1.256       .  A
C1165      O1166   1.270       .  A
C1165      C1189   1.459       .  S
O1166     Cr1182   1.997       .  S
O1167     Cr1182   2.012       .  S
O1167      C1168   1.256       .  A
C1168      O1169   1.251       .  A
C1168      C1299   1.475       .  S
O1169     Cr1183   1.970       .  S
O1170     Cr1183   2.037       .  S
O1170      C1171   1.275       .  A
C1171      C1339   1.505       .  S
O1172     Cr1181   1.977       .  S
O1172      C1180   1.259       .  A
O1173     Cr1181   2.005       .  S
O1173      C1174   1.268       .  A
C1174      O1175   1.262       .  A
C1174      C1309   1.485       .  S
O1175     Cr1182   1.985       .  S
O1176     Cr1182   1.964       .  S
O1176      C1177   1.265       .  A
C1177      O1178   1.280       .  A
C1177      C1389   1.494       .  S
O1178     Cr1183   2.053       .  S
O1179     Cr1183   1.991       .  S
O1179      C1180   1.260       .  A
C1180      C1199   1.479       .  S
Cr1181     O1184   1.787       .  S
Cr1182     O1184   1.784       .  S
Cr1183     O1184   1.788       .  S
C1185      C1186   1.393       .  A
C1185      C1190   1.389   1_556  A
C1185      H1191   1.083       .  S
C1186      C1187   1.411   1_556  A
C1187      C1188   1.391       .  A
C1187      H1192   1.084   1_554  S
C1188      C1189   1.394       .  A
C1188      H1193   1.083       .  S
C1189      C1190   1.412       .  A
C1190      H1194   1.084       .  S
C1195      C1196   1.404       .  A
C1195      C1200   1.394   1_455  A
C1195      H1201   1.084       .  S
C1196      C1197   1.406       .  A
C1197      C1198   1.406   1_455  A
C1197      H1202   1.083       .  S
C1198      C1199   1.407       .  A
C1198      H1203   1.083       .  S
C1199      C1200   1.403       .  A
C1200      H1204   1.084       .  S
C1205      C1206   1.406       .  A
C1205      C1210   1.404       .  A
C1205      H1211   1.083   1_565  S
C1206      C1207   1.404       .  A
C1207      C1208   1.394       .  A
C1207      H1212   1.084       .  S
C1208      C1209   1.404       .  A
C1208      H1213   1.084       .  S
C1209      C1210   1.406       .  A
C1210      H1214   1.083   1_565  S
C1215      C1216   1.412       .  A
C1215      C1220   1.392   1_556  A
C1215      H1221   1.083       .  S
C1216      C1217   1.394       .  A
C1217      C1218   1.390   1_556  A
C1217      H1222   1.083       .  S
C1218      C1219   1.412       .  A
C1218      H1223   1.083       .  S
C1219      C1220   1.395       .  A
C1220      H1224   1.083       .  S
C1225      C1230   1.408   1_556  A
C1225      H1231   1.083       .  S
C1226      C1227   1.416   1_556  A
C1227      H1232   1.083       .  S
C1228      C1229   1.403       .  A
C1229      C1230   1.416       .  A
C1230      H1234   1.083       .  S
C1235      C1240   1.389       .  A
C1235      H1241   1.084       .  S
C1236      C1237   1.407       .  A
C1237      H1242   1.083       .  S
C1238      C1239   1.407       .  A
C1238      H1243   1.083       .  S
C1239      C1240   1.405       .  A
C1240      H1244   1.084       .  S
C1245      C1246   1.408       .  A
C1245      C1250   1.384       .  A
C1245      H1251   1.083       .  S
C1246      C1247   1.402       .  A
C1247      C1248   1.409       .  A
C1247      H1252   1.083       .  S
C1248      C1249   1.412       .  A
C1248      H1253   1.083       .  S
C1249      C1250   1.397       .  A
C1250      H1254   1.084       .  S
C1255      C1256   1.406       .  A
C1255      C1260   1.409       .  A
C1256      C1257   1.401       .  A
C1257      C1258   1.389       .  A
C1257      H1262   1.084       .  S
C1258      C1259   1.403       .  A
C1258      H1263   1.084       .  S
C1259      C1260   1.408       .  A
C1260      H1264   1.083       .  S
C1265      C1266   1.406       .  A
C1265      C1270   1.410       .  A
C1265      H1271   1.083       .  S
C1266      C1267   1.401       .  A
C1267      C1268   1.389       .  A
C1267      H1272   1.084       .  S
C1268      C1269   1.403       .  A
C1268      H1273   1.084       .  S
C1269      C1270   1.408       .  A
C1270      H1274   1.083       .  S
C1275      C1276   1.414   1_554  A
C1275      C1280   1.405       .  A
C1275      H1281   1.083       .  S
C1276      C1277   1.404       .  A
C1277      C1278   1.406   1_556  A
C1277      H1282   1.083       .  S
C1278      C1279   1.414       .  A
C1278      H1283   1.083       .  S
C1279      C1280   1.404       .  A
C1280      H1284   1.083       .  S
C1285      C1286   1.396       .  A
C1285      C1290   1.390       .  A
C1285      H1291   1.084       .  S
C1286      C1287   1.406   1_556  A
C1287      C1288   1.390       .  A
C1287      H1292   1.084       .  S
C1288      C1289   1.396       .  A
C1288      H1293   1.084       .  S
C1289      C1290   1.406   1_554  A
C1290      H1294   1.084       .  S
C1295      C1296   1.402       .  A
C1295      C1300   1.394       .  A
C1295      H1301   1.084       .  S
C1296      C1297   1.410       .  A
C1297      C1298   1.409       .  A
C1297      H1302   1.083       .  S
C1298      C1299   1.404       .  A
C1298      H1303   1.083       .  S
C1299      C1300   1.402       .  A
C1300      H1304   1.084       .  S
C1305      C1306   1.408       .  A
C1305      H1311   1.083       .  S
C1307      C1308   1.392       .  A
C1307      H1312   1.084       .  S
C1308      C1309   1.405       .  A
C1308      H1313   1.084       .  S
C1309      C1310   1.411       .  A
C1310      H1314   1.083       .  S
C1315      C1316   1.415       .  A
C1315      C1320   1.406   1_554  A
C1315      H1321   1.083       .  S
C1316      C1317   1.406       .  A
C1317      H1322   1.083       .  S
C1318      C1319   1.415   1_564  A
C1318      H1323   1.083       .  S
C1320      H1324   1.083       .  S
C1325      C1326   1.405       .  A
C1325      C1330   1.395       .  A
C1325      H1331   1.084       .  S
C1326      C1327   1.406       .  A
C1327      C1328   1.406       .  A
C1327      H1332   1.083       .  S
C1328      C1329   1.407       .  A
C1328      H1333   1.083       .  S
C1329      C1330   1.405       .  A
C1330      H1334   1.084       .  S
C1335      C1336   1.406       .  A
C1335      C1340   1.409   1_556  A
C1335      H1341   1.083       .  S
C1336      C1337   1.414   1_556  A
C1337      C1338   1.407       .  A
C1337      H1342   1.083       .  S
C1338      C1339   1.405       .  A
C1338      H1343   1.083       .  S
C1339      C1340   1.415       .  A
C1340      H1344   1.083       .  S
C1345      C1346   1.401       .  A
C1345      C1350   1.389       .  A
C1345      H1351   1.084       .  S
C1346      C1347   1.407       .  A
C1347      C1348   1.412       .  A
C1347      H1352   1.083       .  S
C1348      C1349   1.409       .  A
C1348      H1353   1.083       .  S
C1349      C1350   1.403       .  A
C1350      H1354   1.084       .  S
C1355      C1356   1.404       .  A
C1355      C1360   1.390       .  A
C1355      H1361   1.084       .  S
C1356      C1357   1.408       .  A
C1357      C1358   1.411       .  A
C1357      H1362   1.083       .  S
C1358      C1359   1.407       .  A
C1359      C1360   1.401       .  A
C1360      H1364   1.084       .  S
C1365      C1366   1.406       .  A
C1365      C1370   1.407   1_655  A
C1365      H1371   1.083       .  S
C1366      C1367   1.404       .  A
C1367      C1368   1.394   1_655  A
C1367      H1372   1.084       .  S
C1368      C1369   1.403       .  A
C1368      H1373   1.084       .  S
C1369      C1370   1.408       .  A
C1370      H1374   1.083       .  S
C1375      C1376   1.394       .  A
C1375      C1380   1.390   1_556  A
C1375      H1381   1.083       .  S
C1376      C1377   1.411       .  A
C1377      C1378   1.389   1_556  A
C1377      H1382   1.084       .  S
C1378      C1379   1.393       .  A
C1378      H1383   1.083       .  S
C1379      C1380   1.411       .  A
C1380      H1384   1.084       .  S
C1385      C1386   1.405       .  A
C1385      C1390   1.395       .  A
C1385      H1391   1.084       .  S
C1386      C1387   1.409       .  A
C1387      C1388   1.414       .  A
C1387      H1392   1.083       .  S
C1388      C1389   1.411       .  A
C1388      H1393   1.083       .  S
C1389      C1390   1.406       .  A
C1390      H1394   1.083       .  S
C1395      C1396   1.409       .  A
C1395      C1400   1.413       .  A
C1395      H1401   1.083   1_565  S
C1396      C1397   1.403       .  A
C1397      C1398   1.391       .  A
C1397      H1402   1.084       .  S
C1398      C1399   1.406       .  A
C1398      H1403   1.083       .  S
C1399      C1400   1.410       .  A
C1400      H1404   1.083   1_565  S
C1405      C1406   1.409       .  A
C1405      C1410   1.388       .  A
C1405      H1411   1.084       .  S
C1406      C1407   1.393       .  A
C1407      C1408   1.389       .  A
C1407      H1412   1.083       .  S
C1408      C1409   1.410       .  A
C1408      H1413   1.084       .  S
C1409      C1410   1.394       .  A
C1410      H1414   1.083       .  S
C1415      C1416   1.411       .  A
C1415      C1420   1.416       .  A
C1415      H1421   1.083       .  S
C1416      C1417   1.403       .  A
C1417      C1418   1.390       .  A
C1417      H1422   1.084       .  S
C1418      C1419   1.406       .  A
C1418      H1423   1.083       .  S
C1419      C1420   1.411       .  A
C1420      H1424   1.083       .  S
C1425      C1426   1.405       .  A
C1425      C1430   1.402       .  A
C1425      H1431   1.083       .  S
C1426      C1427   1.401       .  A
C1427      C1428   1.392       .  A
C1427      H1432   1.084       .  S
C1428      C1429   1.402       .  A
C1428      H1433   1.084       .  S
C1429      C1430   1.405       .  A
C1430      H1434   1.083       .  S
C1435      C1436   1.410       .  A
C1435      C1440   1.415       .  A
C1435      H1441   1.083   1_565  S
C1436      C1437   1.402       .  A
C1437      C1438   1.395       .  A
C1437      H1442   1.084       .  S
C1438      C1439   1.410       .  A
C1438      H1443   1.083       .  S
C1439      C1440   1.411       .  A
C1440      H1444   1.083   1_565  S
C1445      C1446   1.406       .  A
C1445      C1450   1.406   1_655  A
C1445      H1451   1.083       .  S
C1446      C1447   1.405       .  A
C1447      C1448   1.392   1_655  A
C1447      H1452   1.084       .  S
C1448      C1449   1.402       .  A
C1448      H1453   1.084       .  S
C1449      C1450   1.406       .  A
C1450      H1454   1.083   1_565  S
C1455      C1456   1.393       .  A
C1455      C1460   1.390       .  A
C1455      H1461   1.083       .  S
C1456      C1457   1.411       .  A
C1457      C1458   1.390       .  A
C1457      H1462   1.084       .  S
C1458      C1459   1.394       .  A
C1458      H1463   1.083       .  S
C1459      C1460   1.411       .  A
C1460      H1464   1.083       .  S
C1465      C1466   1.397       .  A
C1465      C1470   1.401       .  A
C1465      H1471   1.083       .  S
C1466      C1467   1.410       .  A
C1467      C1468   1.401       .  A
C1467      H1472   1.083       .  S
C1468      C1469   1.401       .  A
C1468      H1473   1.083       .  S
C1469      C1470   1.415       .  A
C1470      H1474   1.083       .  S
C1475      C1476   1.414       .  A
C1475      C1480   1.410       .  A
C1475      H1481   1.083       .  S
C1476      C1477   1.400       .  A
C1477      C1478   1.402       .  A
C1477      H1482   1.083       .  S
C1480      H1484   1.083       .  S
C1485      C1486   1.403       .  A
C1485      H1491   1.083       .  S
C1487      C1488   1.394       .  A
C1487      H1492   1.083       .  S
C1488      C1489   1.395       .  A
C1488      H1493   1.084       .  S
C1489      C1490   1.412       .  A
C1490      H1494   1.083       .  S
C1495      C1496   1.415       .  A
C1495      C1500   1.405       .  A
C1495      H1501   1.083       .  S
C1496      C1497   1.402       .  A
C1497      C1498   1.397       .  A
C1497      H1502   1.083       .  S
C1498      C1499   1.406       .  A
C1498      H1503   1.084       .  S
C1499      C1500   1.399       .  A
C1500      H1504   1.083       .  S
C1505      C1506   1.396       .  A
C1505      C1510   1.400       .  A
C1505      H1511   1.083       .  S
C1506      C1507   1.408       .  A
C1507      C1508   1.402       .  A
C1507      H1512   1.082       .  S
C1508      C1509   1.402       .  A
C1508      H1513   1.083       .  S
C1509      C1510   1.415       .  A
C1510      H1514   1.083       .  S
C1515      C1516   1.403       .  A
C1515      C1520   1.398       .  A
C1515      H1521   1.083       .  S
C1516      C1517   1.415       .  A
C1517      C1518   1.410       .  A
C1517      H1522   1.083       .  S
C1518      C1519   1.402       .  A
C1519      C1520   1.407       .  A
C1520      H1524   1.084       .  S
C1525      C1526   1.394       .  A
C1525      C1530   1.392       .  A
C1525      H1531   1.084       .  S
C1526      C1527   1.411       .  A
C1527      C1528   1.408       .  A
C1527      H1532   1.083       .  S
C1528      C1529   1.402       .  A
C1528      H1533   1.083       .  S
C1529      C1530   1.412       .  A
C1530      H1534   1.082       .  S
C1535      C1536   1.415       .  A
C1535      C1540   1.412       .  A
C1535      H1541   1.083       .  S
C1536      C1537   1.402       .  A
C1537      C1538   1.403       .  A
C1537      H1542   1.083       .  S
C1538      C1539   1.415       .  A
C1538      H1543   1.083       .  S
C1539      C1540   1.405       .  A
C1540      H1544   1.083       .  S
C1545      C1546   1.403       .  A
C1545      C1550   1.391       .  A
C1545      H1551   1.083       .  S
C1546      C1547   1.404       .  A
C1547      C1548   1.391       .  A
C1547      H1552   1.083       .  S
C1548      C1549   1.403       .  A
C1548      H1553   1.083       .  S
C1549      C1550   1.404       .  A
C1550      H1554   1.083       .  S
C1555      C1556   1.410       .  A
C1555      C1560   1.402       .  A
C1555      H1561   1.084       .  S
C1556      C1557   1.399       .  A
C1557      C1558   1.404       .  A
C1557      H1562   1.083       .  S
C1558      C1559   1.414       .  A
C1558      H1563   1.083       .  S
C1559      C1560   1.402       .  A
C1560      H1564   1.083       .  S
C1565      C1566   1.403       .  A
C1565      C1570   1.395       .  A
C1565      H1571   1.083       .  S
C1566      C1567   1.414       .  A
C1567      C1568   1.407       .  A
C1567      H1572   1.083       .  S
C1568      C1569   1.401       .  A
C1568      H1573   1.083       .  S
C1569      C1570   1.405       .  A
C1570      H1574   1.084       .  S
C1575      C1576   1.411       .  A
C1575      H1581   1.084       .  S
C1577      C1578   1.408       .  A
C1577      H1582   1.083       .  S
C1578      C1579   1.410       .  A
C1578      H1583   1.083       .  S
C1579      C1580   1.396       .  A
C1580      H1584   1.084       .  S
C1585      C1586   1.414       .  A
C1585      C1590   1.410       .  A
C1585      H1591   1.083       .  S
C1586      C1587   1.403       .  A
C1587      H1592   1.083       .  S
C1588      C1589   1.413       .  A
C1588      H1593   1.083       .  S
C1590      H1594   1.083       .  S
C1595      C1596   1.408       .  A
C1595      C1600   1.404   1_455  A
C1595      H1601   1.083       .  S
C1596      C1597   1.404       .  A
C1597      C1598   1.393   1_455  A
C1597      H1602   1.083       .  S
C1598      C1599   1.405       .  A
C1598      H1603   1.083       .  S
C1599      C1600   1.407       .  A
C1600      H1604   1.083       .  S
C1605      C1606   1.403       .  A
C1605      C1610   1.394       .  A
C1605      H1611   1.084       .  S
C1606      C1607   1.408       .  A
C1607      C1608   1.412       .  A
C1607      H1612   1.083       .  S
C1608      C1609   1.411       .  A
C1608      H1613   1.083       .  S
C1609      C1610   1.407       .  A
C1610      H1614   1.083       .  S
C1615      C1616   1.416       .  A
C1615      C1620   1.404       .  A
C1615      H1621   1.083       .  S
C1616      C1617   1.403       .  A
C1617      C1618   1.407       .  A
C1617      H1622   1.083       .  S
C1618      C1619   1.415       .  A
C1618      H1623   1.083       .  S
C1619      C1620   1.402       .  A
C1620      H1624   1.083       .  S
C1625      C1626   1.400       .  A
C1625      C1630   1.391       .  A
C1625      H1631   1.084       .  S
C1626      C1627   1.404       .  A
C1627      C1628   1.407       .  A
C1627      H1632   1.083       .  S
C1628      C1629   1.407       .  A
C1628      H1633   1.083       .  S
C1629      C1630   1.404       .  A
C1630      H1634   1.084       .  S
C1635      C1636   1.402       .  A
C1635      C1640   1.408       .  A
C1635      H1641   1.083       .  S
C1636      C1637   1.404       .  A
C1637      C1638   1.386       .  A
C1637      H1642   1.082       .  S
C1638      C1639   1.399       .  A
C1639      C1640   1.411       .  A
C1640      H1644   1.083       .  S
C1645      C1646   1.403       .  A
C1645      C1650   1.401       .  A
C1645      H1651   1.083       .  S
C1646      C1647   1.407       .  A
C1647      C1648   1.394       .  A
C1647      H1652   1.083       .  S
C1648      C1649   1.402       .  A
C1648      H1653   1.083       .  S
C1649      C1650   1.408       .  A
C1650      H1654   1.083       .  S
C1655      C1656   1.401       .  A
C1655      C1660   1.389       .  A
C1655      H1661   1.084       .  S
C1656      C1657   1.398       .  A
C1657      C1658   1.393       .  A
C1657      H1662   1.084       .  S
C1658      C1659   1.406       .  A
C1658      H1663   1.083       .  S
C1659      C1660   1.403       .  A
C1660      H1664   1.083       .  S
