geometry optimzed in LAMMPS
_audit_creation_date              2020-12-01 
_audit_creation_method            'lammps2cif' 
_symmetry_space_group_name_H-M    'P1' 
_symmetry_Int_Tables_number       1 
_symmetry_cell_setting            triclinic 
loop_ 
_symmetry_equiv_pos_as_xyz 
  x,y,z 
_cell_length_a                    36.46311623 
_cell_length_b                    39.90275687872928 
_cell_length_c                    44.67193416558371 
_cell_angle_alpha                 89.76088688447463 
_cell_angle_beta                  94.38523360256583 
_cell_angle_gamma                 90.43174087522983 
loop_ 
_atom_site_label 
_atom_site_type_symbol 
_atom_site_fract_x 
_atom_site_fract_y 
_atom_site_fract_z 
_atom_site_charge 
Fe1        Fe  0.84174230  0.23830536  0.34751860     1.65800
Fe2        Fe  0.85106521  0.32170304  0.33034310     1.73200
Fe3        Fe  0.77516946  0.29380528  0.36204194     1.54400
O4          O  0.74911279  0.24990348  0.35087540    -0.82600
O5          O  0.84615671  0.35408670  0.36643131    -0.80900
O6          O  0.79142902  0.21355476  0.34037458    -0.85100
O7          O  0.83759127  0.23591093  0.39292822    -0.80000
O8          O  0.75559493  0.31381365  0.32059362    -0.81800
O9          O  0.90115565  0.30708949  0.34987003    -0.84500
C10         C  0.81855573  0.25137240  0.41117061     0.96300
C11         C  0.75839542  0.22077253  0.34430794     1.03700
O12         O  0.82287156  0.28445181  0.34690284    -1.13500
O13         O  0.85683692  0.29364503  0.29173266    -0.75900
O14         O  0.84522504  0.23978995  0.30196881    -0.79400
O15         O  0.79457109  0.27373542  0.40340479    -0.80100
C16         C  0.85075916  0.26337822  0.28354607     0.95200
O17         O  0.89663891  0.25214028  0.35571473    -0.78000
O18         O  0.80538394  0.34229063  0.30837073    -0.83200
C19         C  0.81684180  0.36005480  0.37904169     0.97800
C20         C  0.77166946  0.33463667  0.30408220     1.03700
O21         O  0.78986846  0.34008746  0.37707955    -0.78900
C22         C  0.91530184  0.27908344  0.35690274     1.02000
Fe23       Fe  0.64524790  0.47998057  0.14068883     1.65800
Fe24       Fe  0.63698666  0.40058830  0.16440601     1.73200
Fe25       Fe  0.71250560  0.42510323  0.12932497     1.54400
O26         O  0.69335023  0.44733389  0.08796706    -0.82600
O27         O  0.68102487  0.38724183  0.19191604    -0.80900
O28         O  0.64089151  0.47488470  0.09563635    -0.85100
O29         O  0.69465146  0.50551241  0.13734635    -0.80000
O30         O  0.69613684  0.38011540  0.11191698    -0.81800
O31         O  0.62548465  0.43555742  0.19784737    -0.84500
C32         C  0.72834886  0.49806433  0.14052647     0.96300
C33         C  0.66443391  0.46384470  0.07864298     1.03700
O34         O  0.66518349  0.43475305  0.14446015    -1.13500
O35         O  0.58922585  0.41039961  0.13828569    -0.75900
O36         O  0.59022391  0.46550519  0.14215256    -0.79400
O37         O  0.73881034  0.46825270  0.14411104    -0.80100
C38         C  0.57294672  0.43828458  0.13641294     0.95200
O39         O  0.65189493  0.48395894  0.18591506    -0.78000
O40         O  0.64819925  0.36133593  0.13504684    -0.83200
C41         C  0.71557099  0.38903591  0.19168669     0.97800
C42         C  0.67317514  0.35738473  0.11686271     1.03700
O43         O  0.73217019  0.40225464  0.17021305    -0.78900
C44         C  0.64029347  0.46396465  0.20520644     1.02000
Fe45       Fe  0.64839323  0.98188083  0.39174544     1.65800
Fe46       Fe  0.63731205  0.05974818  0.41727270     1.73200
Fe47       Fe  0.71309056  0.04052461  0.38252394     1.54400
O48         O  0.73978808  0.50097171  0.40110121    -0.82600
O49         O  0.65554517  0.10161108  0.39295431    -0.80900
O50         O  0.69849624  0.46008906  0.39316610    -0.85100
O51         O  0.64922699  0.98537375  0.34648645    -0.80000
O52         O  0.72744586  0.06998776  0.42154064    -0.81800
O53         O  0.59293124  0.05258640  0.38670919    -0.84500
C54         C  0.67498827  0.99574658  0.33125887     0.96300
C55         C  0.73144410  0.47022721  0.39926072     1.03700
O56         O  0.66647630  0.02740242  0.39699000    -1.13500
O57         O  0.61782889  0.02317773  0.44593605    -0.75900
O58         O  0.64834400  0.47690979  0.43670624    -0.79400
O59         O  0.70250216  0.01292792  0.34247536    -0.80100
C60         C  0.63315954  0.99580892  0.45459357     0.95200
O61         O  0.59282923  0.99690351  0.38761746    -0.78000
O62         O  0.67890875  0.06749759  0.44924788    -0.83200
C63         C  0.67480953  0.10460005  0.37039787     0.97800
C64         C  0.71213779  0.07479496  0.44612299     1.03700
O65         O  0.68911767  0.07934174  0.35936737    -0.78900
C66         C  0.57618133  0.02475511  0.38271186     1.02000
Fe67       Fe  0.84354052  0.23525687  0.09730599     1.65800
Fe68       Fe  0.85318482  0.15682667  0.07316228     1.73200
Fe69       Fe  0.78174477  0.17610960  0.11272102     1.54400
O70         O  0.79604332  0.20490808  0.15143897    -0.82600
O71         O  0.80921109  0.14907040  0.04359670    -0.80900
O72         O  0.84732721  0.23356771  0.14271431    -0.85100
O73         O  0.79063915  0.25607750  0.09733152    -0.80000
O74         O  0.80957779  0.13864768  0.13485808    -0.81800
O75         O  0.87130157  0.19261869  0.04330932    -0.84500
C76         C  0.75764494  0.24491615  0.09455768     0.96300
C77         C  0.82405389  0.22291741  0.16014351     1.03700
O78         O  0.82574170  0.18956534  0.09444227    -1.13500
O79         O  0.89880759  0.16444406  0.10192170    -0.75900
O80         O  0.89915283  0.22025987  0.09876908    -0.79400
O81         O  0.75036203  0.21390665  0.09335958    -0.80100
C82         C  0.91560248  0.19241521  0.10436243     0.95200
O83         O  0.83934770  0.23824754  0.05188192    -0.78000
O84         O  0.83638809  0.11525959  0.09809668    -0.83200
C85         C  0.77693345  0.14072319  0.04922227     0.97800
C86         C  0.81948719  0.11281599  0.12194071     1.03700
O87         O  0.76425493  0.14530762  0.07500120    -0.78900
C88         C  0.85544420  0.21956564  0.03433314     1.02000
Fe89       Fe  0.14416023  0.23335452  0.38705683     1.65800
Fe90       Fe  0.13604387  0.30750038  0.41906157     1.73200
Fe91       Fe  0.20721863  0.29294982  0.37768533     1.54400
O92         O  0.23757902  0.25179436  0.39235584    -0.82600
O93         O  0.15233373  0.35234611  0.39818752    -0.80900
O94         O  0.19569418  0.21219525  0.38121154    -0.85100
O95         O  0.13721400  0.24413211  0.34308441    -0.80000
O96         O  0.22540504  0.31867941  0.41820782    -0.81800
O97         O  0.09018914  0.30305979  0.38972906    -0.84500
C98         C  0.16091441  0.25515955  0.32618419     0.96300
C99         C  0.22903824  0.22164010  0.38616993     1.03700
O100        O  0.16314534  0.27796628  0.39473007    -1.13500
O101        O  0.11952553  0.26708419  0.44522550    -0.75900
O102        O  0.15199918  0.22351476  0.43148868    -0.79400
O103        O  0.19097684  0.26934848  0.33644396    -0.80100
C104        C  0.13745160  0.24023104  0.45137231     0.95200
O105        O  0.08910337  0.24741257  0.39050595    -0.78000
O106        O  0.17999289  0.31227084  0.44876693    -0.83200
C107        C  0.16955723  0.35813710  0.37492163     0.97800
C108        C  0.21218741  0.32172911  0.44398958     1.03700
O109        O  0.18109676  0.33421314  0.36000859    -0.78900
C110        C  0.07302455  0.27546140  0.38580680     1.02000
Fe111      Fe  0.34199405  0.48177955  0.10778132     1.65800
Fe112      Fe  0.35153707  0.40673651  0.07710916     1.73200
Fe113      Fe  0.27874142  0.42218587  0.11677307     1.54400
O114        O  0.29390126  0.44658607  0.15795512    -0.82600
O115        O  0.30807032  0.39978269  0.04726813    -0.80900
O116        O  0.34775725  0.47246863  0.15223471    -0.85100
O117        O  0.29004856  0.50269469  0.11273308    -0.80000
O118        O  0.30380340  0.38104018  0.13549062    -0.81800
O119        O  0.36676404  0.44654901  0.04970753    -0.84500
C120        C  0.25691706  0.49296543  0.10708514     0.96300
C121        C  0.32305351  0.46204245  0.16854052     1.03700
O122        O  0.32365464  0.43668702  0.10061679    -1.13500
O123        O  0.39738157  0.41264581  0.10621925    -0.75900
O124        O  0.39755385  0.46820370  0.10539712    -0.79400
O125        O  0.24900039  0.46287191  0.10045461    -0.80100
C126        C  0.41417064  0.44038660  0.11018004     0.95200
O127        O  0.33471341  0.49057090  0.06300007    -0.78000
O128        O  0.33647931  0.36261158  0.09949029    -0.83200
C129        C  0.27524686  0.39175235  0.05134534     0.97800
C130        C  0.31775491  0.35716501  0.12198955     1.03700
O131        O  0.26112019  0.39600750  0.07656539    -0.78900
C132        C  0.34820896  0.47297125  0.04314263     1.02000
Fe133      Fe  0.14664147  0.23076007  0.13764626     1.65800
Fe134      Fe  0.13418959  0.15500057  0.16705024     1.73200
Fe135      Fe  0.20899201  0.17034183  0.12905584     1.54400
O136        O  0.19558971  0.19412018  0.08761341    -0.82600
O137        O  0.17674778  0.14832674  0.19817764    -0.80900
O138        O  0.14438433  0.22363084  0.09294366    -0.85100
O139        O  0.19904085  0.25189822  0.13709771    -0.80000
O140        O  0.18439170  0.12856641  0.11025198    -0.81800
O141        O  0.11699701  0.19379003  0.19379708    -0.84500
C142        C  0.23186100  0.24163276  0.14201655     0.96300
C143        C  0.16775362  0.21089795  0.07684756     1.03700
O144        O  0.16373184  0.18526976  0.14445319    -1.13500
O145        O  0.08939028  0.16121744  0.13658450    -0.75900
O146        O  0.09100708  0.21692634  0.13658493    -0.79400
O147        O  0.23954027  0.21090441  0.14496499    -0.80100
C148        C  0.07368294  0.18930799  0.13202739     0.95200
O149        O  0.14951458  0.23846014  0.18242168    -0.78000
O150        O  0.15009641  0.11096893  0.14592909    -0.83200
C151        C  0.20979380  0.14060687  0.19479442     0.97800
C152        C  0.16962418  0.10514004  0.12411657     1.03700
O153        O  0.22454923  0.14485681  0.16982939    -0.78900
C154        C  0.13328482  0.22120020  0.20123940     1.02000
Fe155      Fe  0.34223701  0.98265134  0.35720778     1.65800
Fe156      Fe  0.35339643  0.05772686  0.32574593     1.73200
Fe157      Fe  0.27975872  0.04279010  0.36527062     1.54400
O158        O  0.24759297  0.50513465  0.35207873    -0.82600
O159        O  0.33837136  0.10222216  0.34739757    -0.80900
O160        O  0.28925055  0.46555361  0.36051199    -0.85100
O161        O  0.34633167  0.99166942  0.40180727    -0.80000
O162        O  0.26290329  0.06808746  0.32469482    -0.81800
O163        O  0.39985848  0.05174774  0.35465394    -0.84500
C164        C  0.32326973  0.00484427  0.41794623     0.96300
C165        C  0.25611449  0.47477173  0.35592056     1.03700
O166        O  0.32478848  0.02788020  0.34950771    -1.13500
O167        O  0.36860425  0.01816514  0.29853958    -0.75900
O168        O  0.33515654  0.48109731  0.31239847    -0.79400
O169        O  0.29419313  0.01972213  0.40694257    -0.80100
C170        C  0.35254039  0.99011031  0.29268941     0.95200
O171        O  0.39793494  0.99627990  0.35598376    -0.78000
O172        O  0.30989881  0.06435293  0.29566958    -0.83200
C173        C  0.31900186  0.10804158  0.36943101     0.97800
C174        C  0.27706678  0.07223618  0.29949971     1.03700
O175        O  0.30453967  0.08453357  0.38336400    -0.78900
C176        C  0.41596088  0.02374167  0.35872806     1.02000
C177        C  0.25660357  0.08808455  0.27311603    -0.07100
C178        C  0.26833279  0.08089029  0.24444175    -0.18200
C179        C  0.25593311  0.09909718  0.21888059     0.10100
C180        C  0.22992992  0.12474242  0.22132054    -0.07000
C181        C  0.21808229  0.13190100  0.24997030    -0.18200
C182        C  0.23082460  0.11392707  0.27562099     0.10200
S183        S  0.27377172  0.08767090  0.18389090    -0.33200
S184        S  0.21423910  0.12623926  0.31085115    -0.33200
H185        H  0.20032051  0.09408525  0.31672433     0.28200
H186        H  0.28764700  0.12005529  0.17888553     0.28200
H187        H  0.28830885  0.06128767  0.24192980     0.18800
H188        H  0.19809144  0.15149432  0.25242609     0.18800
C189        C  0.30730123  0.32260997  0.13156708    -0.07100
C190        C  0.28849821  0.31993048  0.15798986    -0.18200
C191        C  0.26559853  0.29263928  0.16318539     0.10100
C192        C  0.26216504  0.26640480  0.14226098    -0.07000
C193        C  0.28476843  0.26649304  0.11819429    -0.18200
C194        C  0.30710583  0.29437154  0.11235054     0.10200
S195        S  0.23985785  0.29374413  0.19601664    -0.33200
S196        S  0.33181629  0.29442476  0.07877941    -0.33200
H197        H  0.32190120  0.26185649  0.06913679     0.28200
H198        H  0.23569629  0.25882235  0.19875223     0.28200
H199        H  0.28911657  0.34056546  0.17371581     0.18800
H200        H  0.28262523  0.24575392  0.10260811     0.18800
C201        C  0.22862845  0.01597389  0.10982336    -0.07100
C202        C  0.21407683  0.03423152  0.08485607    -0.18200
C203        C  0.19003114  0.06108377  0.08827766     0.10100
C204        C  0.18087337  0.07045816  0.11734627    -0.07000
C205        C  0.19276631  0.05007030  0.14183062    -0.18200
C206        C  0.21630262  0.02301973  0.13833157     0.10200
S207        S  0.17307789  0.08337438  0.05491400    -0.33200
S208        S  0.23183560  0.99976204  0.17145142    -0.33200
H209        H  0.22923955  0.96853546  0.15695643     0.28200
H210        H  0.14151938  0.09589680  0.06717566     0.28200
H211        H  0.22255905  0.02842239  0.06276645     0.18800
H212        H  0.18629622  0.05686849  0.16428523     0.18800
C213        C  0.32871948  0.47044501  0.20065813    -0.07100
C214        C  0.34529160  0.50153855  0.20788476    -0.18200
C215        C  0.37493397  0.98521849  0.24066576     0.10100
C216        C  0.34527149  0.48950690  0.26117309    -0.07000
C217        C  0.32829118  0.45837671  0.25381093    -0.18200
C218        C  0.32035232  0.44851496  0.22398271     0.10200
S219        S  0.41894005  0.00468272  0.25074831    -0.33200
S220        S  0.30097772  0.40732896  0.21726372    -0.33200
H221        H  0.32342579  0.39988256  0.19396537     0.28200
H222        H  0.42444546  0.98815408  0.27861467     0.28200
H223        H  0.38617533  0.98512419  0.19478153     0.18800
H224        H  0.32129694  0.44125951  0.27141341     0.18800
C225        C  0.33031798  0.00116416  0.45076513    -0.07100
C226        C  0.30032091  0.99881133  0.46848861    -0.18200
C227        C  0.30596982  0.49083687  0.99886978     0.10100
C228        C  0.34173155  0.48344686  0.01173088    -0.07000
C229        C  0.37137453  0.49127444  0.49468910    -0.18200
C230        C  0.36591818  0.50218479  0.46500936     0.10200
S231        S  0.26621841  0.98610005  0.01879884    -0.33200
S232        S  0.40645138  0.51250102  0.44600487    -0.33200
H233        H  0.38992054  0.53867679  0.42873208     0.28200
H234        H  0.27713676  0.46111630  0.03794089     0.28200
H235        H  0.27263492  0.00243087  0.45842413     0.18800
H236        H  0.39912450  0.48767805  0.50463619     0.18800
C237        C  0.23267061  0.33805285  0.47010540    -0.07100
C238        C  0.22543786  0.32633285  0.49894530    -0.18200
C239        C  0.23275991  0.34691867  0.02726151     0.10100
C240        C  0.25488399  0.37582160  0.02503642    -0.07000
C241        C  0.26357592  0.38629723  0.49397999    -0.18200
C242        C  0.25187189  0.36867776  0.46782799     0.10200
S243        S  0.21998486  0.33008508  0.06251037    -0.33200
S244        S  0.25999861  0.38776703  0.43234040    -0.33200
H245        H  0.27792296  0.35951559  0.42191406     0.28200
H246        H  0.25550263  0.33272800  0.07675866     0.28200
H247        H  0.20994959  0.30327167  0.50116358     0.18800
H248        H  0.28082954  0.40862093  0.99408988     0.18800
C249        C  0.14380603  0.22920866  0.48251259    -0.07100
C250        C  0.18045791  0.22446609  0.49359370    -0.18200
C251        C  0.18950404  0.22099853  0.02506961     0.10100
C252        C  0.16100424  0.21615898  0.04430522    -0.07000
C253        C  0.12410261  0.21827200  0.03251625    -0.18200
C254        C  0.11539137  0.22620557  0.50189281     0.10200
S255        S  0.23745850  0.22260806  0.03814311    -0.33200
S256        S  0.06739203  0.22989407  0.48923696    -0.36400
H257        H  0.07093588  0.21806415  0.45998815     0.28200
H258        H  0.23155592  0.24267723  0.06311939     0.28200
H259        H  0.20239136  0.22733281  0.47866927     0.18800
H260        H  0.10189339  0.21434974  0.04700368     0.18800
C261        C  0.13548677  0.23279543  0.23273855    -0.07100
C262        C  0.16080801  0.25860160  0.24108137    -0.18200
C263        C  0.16920816  0.26728693  0.27104985     0.10100
C264        C  0.15266651  0.24924846  0.29369800    -0.07000
C265        C  0.12617757  0.22442064  0.28523411    -0.18200
C266        C  0.11672543  0.21668494  0.25529760     0.10200
S267        S  0.20048869  0.30193481  0.27848989    -0.33200
S268        S  0.08004421  0.18657300  0.24789920    -0.33200
H269        H  0.06281481  0.20516222  0.22399803     0.28200
H270        H  0.17829427  0.31720697  0.29885916     0.28200
H271        H  0.17467121  0.27207599  0.22415351     0.18800
H272        H  0.11233891  0.21067099  0.30210028     0.18800
C273        C  0.22665425  0.44916658  0.35622816    -0.07100
C274        C  0.20407421  0.44854470  0.38034327    -0.18200
C275        C  0.18119561  0.42086221  0.38538496     0.10100
C276        C  0.18114837  0.39272570  0.36604821    -0.07000
C277        C  0.20073495  0.39557275  0.34001365    -0.18200
C278        C  0.22357630  0.42305769  0.33514378     0.10200
S279        S  0.15515366  0.42228728  0.41799694    -0.33200
S280        S  0.24984760  0.42234799  0.30252236    -0.33200
H281        H  0.25333034  0.45730749  0.29957327     0.28200
H282        H  0.12314816  0.40866672  0.40298284     0.28200
H283        H  0.20585550  0.46892167  0.39637586     0.18800
H284        H  0.20048854  0.37509067  0.32415720     0.18800
C285        C  0.25861242  0.19678000  0.38335455    -0.07100
C286        C  0.27005914  0.17676094  0.40806622    -0.18200
C287        C  0.29463488  0.15021928  0.40526233     0.10100
C288        C  0.30758001  0.14269209  0.37684224    -0.07000
C289        C  0.29885997  0.16492614  0.35290453    -0.18200
C290        C  0.27433530  0.19149713  0.35580151     0.10200
S291        S  0.30716383  0.12592951  0.43858456    -0.33200
S292        S  0.26175322  0.21629696  0.32293146    -0.33200
H293        H  0.22385429  0.21110655  0.32489158     0.28200
H294        H  0.34092935  0.11497698  0.42899540     0.28200
H295        H  0.25892078  0.18118607  0.42951391     0.18800
H296        H  0.30806396  0.15962531  0.33091190     0.18800
C297        C  0.95594669  0.19211561  0.11202235    -0.07100
C298        C  0.97688214  0.16723733  0.09918604    -0.18200
C299        C  0.01528049  0.16634330  0.10425534     0.10100
C300        C  0.03358017  0.19041521  0.12325504    -0.07000
C301        C  0.01266300  0.21550591  0.13580755    -0.18200
C302        C  0.97427823  0.21638062  0.13073638     0.10200
S303        S  0.03931090  0.13488622  0.08466031    -0.33200
S304        S  0.95016947  0.24767678  0.15039440    -0.33200
H305        H  0.92126417  0.22605255  0.15714800     0.28200
H306        H  0.06957808  0.15558443  0.07934942     0.28200
H307        H  0.96329016  0.14881827  0.08431021     0.18800
H308        H  0.02618722  0.23387870  0.15077289     0.18800
C309        C  0.53556973  0.02445203  0.37428095    -0.07100
C310        C  0.51503459  0.99597635  0.38158060    -0.18200
C311        C  0.47654893  0.99482911  0.37685780     0.10100
C312        C  0.45701117  0.02315853  0.36499295    -0.07000
C313        C  0.47759432  0.05161455  0.35758354    -0.18200
C314        C  0.51619781  0.05236652  0.36142333     0.10200
S315        S  0.44973170  0.46097692  0.39139482    -0.33200
S316        S  0.53875719  0.08930859  0.34814711    -0.33200
H317        H  0.56651055  0.07136949  0.33508738     0.28200
H318        H  0.47976753  0.44482831  0.40676898     0.28200
H319        H  0.52900648  0.97434055  0.39161038     0.18800
H320        H  0.46358716  0.07333765  0.34775629     0.18800
C321        C  0.75514901  0.12409015  0.02420834    -0.07100
C322        C  0.75035789  0.08918274  0.02536402    -0.18200
C323        C  0.74032421  0.07331485  0.49946098     0.10100
C324        C  0.73189616  0.09105493  0.47231179    -0.07000
C325        C  0.73352697  0.12618123  0.47261314    -0.18200
C326        C  0.74383998  0.14377422  0.49906612     0.10200
S327        S  0.73535964  0.02590340  0.00302345    -0.33200
S328        S  0.74449126  0.18895244  0.49718452    -0.33200
H329        H  0.74684179  0.19319531  0.02246890     0.28200
H330        H  0.74248300  0.02200101  0.47119962     0.28200
H331        H  0.75673553  0.07596127  0.04635681     0.18800
H332        H  0.72534216  0.14008762  0.45230527     0.18800
C333        C  0.53247885  0.43898431  0.12882903    -0.07100
C334        C  0.51047443  0.41396010  0.14077544    -0.18200
C335        C  0.47197548  0.41460321  0.13633059     0.10100
C336        C  0.45452091  0.44030779  0.11861570    -0.07000
C337        C  0.47655293  0.46542032  0.10680501    -0.18200
C338        C  0.51503954  0.46486489  0.11141084     0.10200
S339        S  0.44682086  0.38290186  0.15531608    -0.33200
S340        S  0.54034795  0.49675764  0.09287271    -0.33200
H341        H  0.56749154  0.47466325  0.08429095     0.28200
H342        H  0.41838745  0.40443479  0.16246472     0.28200
H343        H  0.52331287  0.39431939  0.15465665     0.18800
H344        H  0.46379478  0.48500758  0.09281795     0.18800
C345        C  0.68052993  0.32415483  0.10354866    -0.07100
C346        C  0.67958470  0.29583594  0.12218143    -0.18200
C347        C  0.70229844  0.26822908  0.11803463     0.10100
C348        C  0.72675175  0.26886173  0.09484895    -0.07000
C349        C  0.72421618  0.29516688  0.07400668    -0.18200
C350        C  0.70050224  0.32212221  0.07754497     0.10200
S351        S  0.70305118  0.23533437  0.14578387    -0.33200
S352        S  0.69856159  0.35440368  0.04915277    -0.33200
H353        H  0.66364875  0.36573965  0.05574337     0.28200
H354        H  0.69640699  0.20977589  0.12444757     0.28200
H355        H  0.66418868  0.29660293  0.14196940     0.18800
H356        H  0.74172267  0.29530083  0.05545690     0.18800
C357        C  0.75797828  0.02452897  0.13937443    -0.07100
C358        C  0.76236294  0.04900822  0.16159054    -0.18200
C359        C  0.78597543  0.07652566  0.15847668     0.10100
C360        C  0.80524839  0.07989298  0.13200693    -0.07000
C361        C  0.80294855  0.05359634  0.11112054    -0.18200
C362        C  0.77912047  0.02646631  0.11427409     0.10200
S363        S  0.78963480  0.10731831  0.18817801    -0.33200
S364        S  0.77277702  0.49785230  0.08287595    -0.33200
H365        H  0.73430947  0.50070833  0.07949553     0.28200
H366        H  0.76883497  0.09000902  0.20861586     0.28200
H367        H  0.74632719  0.04697724  0.18094782     0.18800
H368        H  0.81698283  0.05560537  0.09066367     0.18800
C369        C  0.63738230  0.48706225  0.48697844    -0.07100
C370        C  0.63958932  0.01139139  0.00700463    -0.18200
C371        C  0.65068685  0.50501893  0.03730627     0.10100
C372        C  0.65723821  0.47166345  0.04671705    -0.07000
C373        C  0.65176440  0.44549212  0.02613578    -0.18200
C374        C  0.64118180  0.45353650  0.49724533     0.10200
S375        S  0.65728194  0.04101093  0.06242670    -0.33200
S376        S  0.62965454  0.41773010  0.47378100    -0.33200
H377        H  0.60144490  0.43383348  0.45603954     0.28200
H378        H  0.64628944  0.06613407  0.04151972     0.28200
H379        H  0.63548398  0.03686841  0.99907136     0.18800
H380        H  0.65514371  0.41983331  0.03371044     0.18800
C381        C  0.64634189  0.47329617  0.23740486    -0.07100
C382        C  0.64816947  0.44743615  0.25889422    -0.18200
C383        C  0.65860999  0.45381669  0.28908826     0.10100
C384        C  0.67158751  0.98752903  0.29910741    -0.07000
C385        C  0.66489375  0.01359954  0.27843300    -0.18200
C386        C  0.65525495  0.50654159  0.24702579     0.10200
S387        S  0.66100524  0.41853560  0.31454421    -0.33200
S388        S  0.64164084  0.04279156  0.22487539    -0.33200
H389        H  0.61790061  0.53207686  0.20770866     0.28200
H390        H  0.68986797  0.43161346  0.33382592     0.28200
H391        H  0.64251929  0.42175055  0.25206734     0.18800
H392        H  0.66694018  0.03936278  0.28606973     0.18800
C393        C  0.95547075  0.27802277  0.36548841    -0.07100
C394        C  0.97862388  0.29969836  0.35051589    -0.18200
C395        C  0.01692035  0.29875114  0.35599237     0.10100
C396        C  0.03295293  0.27589940  0.37732295    -0.07000
C397        C  0.00991571  0.25422041  0.39235436    -0.18200
C398        C  0.97151834  0.25543714  0.38711911     0.10200
S399        S  0.04376278  0.32636695  0.33403824    -0.33200
S400        S  0.94464732  0.22917893  0.41020748    -0.33200
H401        H  0.91688492  0.25297876  0.41321554     0.28200
H402        H  0.07263087  0.30364446  0.33127543     0.28200
H403        H  0.96684999  0.31694970  0.33367936     0.18800
H404        H  0.02185335  0.23713452  0.40927168     0.18800
C405        C  0.73551515  0.37468506  0.21849575    -0.07100
C406        C  0.74706712  0.39646524  0.24193213    -0.18200
C407        C  0.75557583  0.38431521  0.27110141     0.10100
C408        C  0.75253938  0.34959130  0.27715004    -0.07000
C409        C  0.74018454  0.32796318  0.25389393    -0.18200
C410        C  0.73207683  0.34007901  0.22472743     0.10200
S411        S  0.76920247  0.41442993  0.29992996    -0.33200
S412        S  0.71757632  0.31005198  0.19618995    -0.33200
H413        H  0.72990947  0.32863859  0.17204197     0.28200
H414        H  0.75824323  0.39508507  0.32413953     0.28200
H415        H  0.74764873  0.42323825  0.23783598     0.18800
H416        H  0.73905554  0.30121807  0.25802255     0.18800
C417        C  0.83057153  0.23250271  0.19171857    -0.07100
C418        C  0.82593555  0.26615034  0.19920950    -0.18200
C419        C  0.83515411  0.27773601  0.22833148     0.10100
C420        C  0.84789046  0.25479746  0.25110613    -0.07000
C421        C  0.85343059  0.22122646  0.24308163    -0.18200
C422        C  0.84602377  0.21017578  0.21358403     0.10200
S423        S  0.82924737  0.32181538  0.23464185    -0.33200
S424        S  0.85807229  0.16769571  0.20518127    -0.33200
H425        H  0.86703638  0.17373585  0.17557957     0.28200
H426        H  0.86629280  0.32677257  0.24503266     0.28200
H427        H  0.81564821  0.28371011  0.18201790     0.18800
H428        H  0.86395453  0.20338225  0.25991024     0.18800
C429        C  0.82606259  0.24333820  0.44304372    -0.07100
C430        C  0.83553669  0.26955788  0.46292803    -0.18200
C431        C  0.84979473  0.26175584  0.99225759     0.10100
C432        C  0.85297770  0.22818676  0.00229757    -0.07000
C433        C  0.84071412  0.20331132  0.48306640    -0.18200
C434        C  0.82850352  0.20984197  0.45328411     0.10200
S435        S  0.86223688  0.29717904  0.01594349    -0.33200
S436        S  0.81416595  0.17451670  0.43002135    -0.33200
H437        H  0.78641441  0.19165673  0.41264602     0.28200
H438        H  0.88952462  0.28019262  0.03397365     0.28200
H439        H  0.83473287  0.29526215  0.45487522     0.18800
H440        H  0.84101651  0.17757632  0.49101659     0.18800
C441        C  0.81004430  0.39202677  0.39448492    -0.07100
C442        C  0.78432032  0.39044713  0.41651286    -0.18200
C443        C  0.75937119  0.41648812  0.41985173     0.10100
C444        C  0.76148382  0.44547160  0.40205262    -0.07000
C445        C  0.79123535  0.44943652  0.38404707    -0.18200
C446        C  0.81577634  0.42311921  0.38033624     0.10200
S447        S  0.72368258  0.41181536  0.44550156    -0.33200
S448        S  0.85079993  0.42932061  0.35453561    -0.33200
H449        H  0.87726773  0.41041311  0.37167396     0.28200
H450        H  0.73425375  0.38004907  0.45671219     0.28200
H451        H  0.78060699  0.36700750  0.42825318     0.18800
H452        H  0.79376173  0.47219689  0.37102755     0.18800
C453        C  0.72990058  0.19400212  0.34466317    -0.07100
C454        C  0.70425026  0.19587783  0.36666316    -0.18200
C455        C  0.68190764  0.16847895  0.37326052     0.10100
C456        C  0.68553647  0.13787122  0.35795412    -0.07000
C457        C  0.70779507  0.13770131  0.33332412    -0.18200
C458        C  0.72995352  0.16514166  0.32667215     0.10200
S459        S  0.65134164  0.17389171  0.40264782    -0.33200
S460        S  0.75848075  0.16127108  0.29563398    -0.33200
H461        H  0.75819104  0.19559100  0.28826225     0.28200
H462        H  0.62205791  0.15639652  0.38723940     0.28200
H463        H  0.70307212  0.21825371  0.38020385     0.18800
H464        H  0.70998460  0.11516612  0.32016338     0.18800
Fe465      Fe  0.84277267  0.23877384  0.84692497     1.65800
Fe466      Fe  0.85231056  0.32220159  0.83141210     1.73200
Fe467      Fe  0.77620103  0.29363819  0.86272845     1.54400
O468        O  0.74963854  0.25001477  0.85036558    -0.82600
O469        O  0.84684567  0.35420403  0.86759474    -0.80900
O470        O  0.79268303  0.21362568  0.84172322    -0.85100
O471        O  0.84088942  0.23627429  0.89224735    -0.80000
O472        O  0.75652142  0.31539386  0.82189410    -0.81800
O473        O  0.90200423  0.30749367  0.85163644    -0.84500
C474        C  0.82121836  0.25052365  0.91071739     0.96300
C475        C  0.75947944  0.22064476  0.84504055     1.03700
O476        O  0.82383333  0.28478312  0.84724360    -1.13500
O477        O  0.85894469  0.29461266  0.79259480    -0.75900
O478        O  0.84388205  0.24109887  0.80149915    -0.79400
O479        O  0.79601827  0.27198473  0.90340351    -0.80100
C480        C  0.85102319  0.26484931  0.78375302     0.95200
O481        O  0.89784493  0.25221610  0.85311626    -0.78000
O482        O  0.80687203  0.34266000  0.80910735    -0.83200
C483        C  0.81792394  0.35964277  0.88087538     0.97800
C484        C  0.77288186  0.33592417  0.80522621     1.03700
O485        O  0.79114350  0.33942719  0.87918326    -0.78900
C486        C  0.91637636  0.27907710  0.85626204     1.02000
Fe487      Fe  0.64696615  0.48205327  0.64139731     1.65800
Fe488      Fe  0.63711545  0.40269193  0.66505962     1.73200
Fe489      Fe  0.71318095  0.42575604  0.63023735     1.54400
O490        O  0.69533021  0.44884647  0.58898992    -0.82600
O491        O  0.68057103  0.38865694  0.69282829    -0.80900
O492        O  0.64346885  0.47749930  0.59617370    -0.85100
O493        O  0.69713525  0.50627668  0.63896433    -0.80000
O494        O  0.69548886  0.38156653  0.61206239    -0.81800
O495        O  0.62590880  0.43767898  0.69847530    -0.84500
C496        C  0.73057453  0.49798384  0.64235619     0.96300
C497        C  0.66702871  0.46600118  0.57940349     1.03700
O498        O  0.66601512  0.43641827  0.64525395    -1.13500
O499        O  0.59001129  0.41320026  0.63862899    -0.75900
O500        O  0.59156174  0.46836827  0.64200501    -0.79400
O501        O  0.74028173  0.46797439  0.64580100    -0.80100
C502        C  0.57406275  0.44120773  0.63644796     0.95200
O503        O  0.65272869  0.48600824  0.68675857    -0.78000
O504        O  0.64776603  0.36333076  0.63574554    -0.83200
C505        C  0.71513011  0.38931331  0.69248825     0.97800
C506        C  0.67224745  0.35915806  0.61718614     1.03700
O507        O  0.73203751  0.40195319  0.67092879    -0.78900
C508        C  0.64099635  0.46590903  0.70593284     1.02000
Fe509      Fe  0.64685462  0.98044415  0.89111642     1.65800
Fe510      Fe  0.63809486  0.05777141  0.91803587     1.73200
Fe511      Fe  0.71141008  0.03888129  0.88087319     1.54400
O512        O  0.74187435  0.50096755  0.90270633    -0.82600
O513        O  0.65775748  0.10029465  0.89510929    -0.80900
O514        O  0.70082460  0.45992711  0.89438084    -0.85100
O515        O  0.64632882  0.98439325  0.84580276    -0.80000
O516        O  0.72702127  0.06797449  0.92001698    -0.81800
O517        O  0.59350902  0.05254858  0.88751571    -0.84500
C518        C  0.67176205  0.99447731  0.83011060     0.96300
C519        C  0.73362327  0.47018960  0.90100827     1.03700
O520        O  0.66569823  0.02557096  0.89646522    -1.13500
O521        O  0.61728040  0.02071487  0.94549752    -0.75900
O522        O  0.64887913  0.47632106  0.93648563    -0.79400
O523        O  0.69958388  0.01155391  0.84086732    -0.80100
C524        C  0.63285438  0.99352482  0.95426511     0.95200
O525        O  0.59171683  0.99675650  0.88798593    -0.78000
O526        O  0.68055535  0.06270943  0.94965261    -0.83200
C527        C  0.67533212  0.10338717  0.87159910     0.97800
C528        C  0.71320387  0.07118301  0.94549213     1.03700
O529        O  0.68613492  0.07776452  0.85867933    -0.78900
C530        C  0.57596138  0.02511785  0.88332843     1.02000
Fe531      Fe  0.84204847  0.23728362  0.59848204     1.65800
Fe532      Fe  0.85181064  0.15867127  0.57478728     1.73200
Fe533      Fe  0.77998316  0.17816506  0.61400979     1.54400
O534        O  0.79431786  0.20710838  0.65251176    -0.82600
O535        O  0.80767265  0.15032639  0.54538853    -0.80900
O536        O  0.84578329  0.23558278  0.64374767    -0.85100
O537        O  0.78916422  0.25812633  0.59849700    -0.80000
O538        O  0.80701739  0.14024004  0.63629081    -0.81800
O539        O  0.86915222  0.19439744  0.54436598    -0.84500
C540        C  0.75620154  0.24694014  0.59552802     0.96300
C541        C  0.82237310  0.22508652  0.66110275     1.03700
O542        O  0.82427469  0.19145682  0.59589137    -1.13500
O543        O  0.89794381  0.16688753  0.60335913    -0.75900
O544        O  0.89789426  0.22262758  0.59997315    -0.79400
O545        O  0.74896212  0.21595308  0.59437141    -0.80100
C546        C  0.91466441  0.19497234  0.60575951     0.95200
O547        O  0.83760956  0.24024161  0.55309442    -0.78000
O548        O  0.83519729  0.11707939  0.60009034    -0.83200
C549        C  0.77520046  0.14250454  0.55091482     0.97800
C550        C  0.81741291  0.11445287  0.62350241     1.03700
O551        O  0.76236181  0.14747609  0.57652162    -0.78900
C552        C  0.85303560  0.22126870  0.53538674     1.02000
Fe553      Fe  0.14618345  0.23397514  0.88809702     1.65800
Fe554      Fe  0.13501653  0.30795743  0.91972001     1.73200
Fe555      Fe  0.20757067  0.29531595  0.87956934     1.54400
O556        O  0.23881975  0.25548298  0.89543972    -0.82600
O557        O  0.15090561  0.35298357  0.89916662    -0.80900
O558        O  0.19879317  0.21421774  0.88457538    -0.85100
O559        O  0.14087379  0.24390039  0.84384246    -0.80000
O560        O  0.22375439  0.32145942  0.92024328    -0.81800
O561        O  0.09027193  0.30273295  0.88956715    -0.84500
C562        C  0.16427955  0.25614673  0.82726942     0.96300
C563        C  0.23155616  0.22489470  0.89039349     1.03700
O564        O  0.16350239  0.27909742  0.89585260    -1.13500
O565        O  0.11846074  0.26737731  0.94554396    -0.75900
O566        O  0.15248827  0.22460140  0.93261161    -0.79400
O567        O  0.19351169  0.27122994  0.83811116    -0.80100
C568        C  0.13717081  0.24111947  0.95214763     0.95200
O569        O  0.09047074  0.24703238  0.88963683    -0.78000
O570        O  0.17807879  0.31335862  0.95018378    -0.83200
C571        C  0.16839788  0.35918999  0.87614753     0.97800
C572        C  0.21011745  0.32366278  0.94591509     1.03700
O573        O  0.18046993  0.33563033  0.86113243    -0.78900
C574        C  0.07389802  0.27487551  0.88492178     1.02000
Fe575      Fe  0.34311159  0.48051611  0.60761576     1.65800
Fe576      Fe  0.35336064  0.40638939  0.57542384     1.73200
Fe577      Fe  0.27956580  0.42088842  0.61450157     1.54400
O578        O  0.29545910  0.44360655  0.65655975    -0.82600
O579        O  0.30996741  0.39778833  0.54549090    -0.80900
O580        O  0.34972813  0.46850450  0.65139508    -0.85100
O581        O  0.29153714  0.50111807  0.61401005    -0.80000
O582        O  0.30277583  0.37838506  0.63211714    -0.81800
O583        O  0.36657409  0.44712717  0.54810679    -0.84500
C584        C  0.25857686  0.49200439  0.60687073     0.96300
C585        C  0.32557499  0.45709799  0.66774982     1.03700
O586        O  0.32489500  0.43552764  0.59909298    -1.13500
O587        O  0.39943376  0.41312764  0.60429899    -0.75900
O588        O  0.39856710  0.46850621  0.60394103    -0.79400
O589        O  0.25074552  0.46236652  0.59880129    -0.80100
C590        C  0.41568892  0.44104921  0.60856357     0.95200
O591        O  0.33527951  0.49103402  0.56332826    -0.78000
O592        O  0.34023560  0.36201199  0.59828263    -0.83200
C593        C  0.27672857  0.39068843  0.54903055     0.97800
C594        C  0.32009884  0.35562403  0.61977738     1.03700
O595        O  0.26183016  0.39608529  0.57371873    -0.78900
C596        C  0.34839746  0.47411448  0.54280747     1.02000
Fe597      Fe  0.14824187  0.23297868  0.63741752     1.65800
Fe598      Fe  0.13446832  0.15765993  0.66744102     1.73200
Fe599      Fe  0.20911901  0.17125858  0.62897849     1.54400
O600        O  0.19607394  0.19523911  0.58749318    -0.82600
O601        O  0.17707110  0.15028130  0.69827946    -0.80900
O602        O  0.14521286  0.22524666  0.59265544    -0.85100
O603        O  0.20151093  0.25286093  0.63614651    -0.80000
O604        O  0.18297079  0.13044926  0.61012070    -0.81800
O605        O  0.11883222  0.19706666  0.69431363    -0.84500
C606        C  0.23410131  0.24185346  0.64118244     0.96300
C607        C  0.16829226  0.21199858  0.57655861     1.03700
O608        O  0.16438247  0.18723358  0.64452415    -1.13500
O609        O  0.08938658  0.16458861  0.63741816    -0.75900
O610        O  0.09186046  0.22024367  0.63685316    -0.79400
O611        O  0.24081380  0.21103591  0.64486823    -0.80100
C612        C  0.07394165  0.19277399  0.63269543     0.95200
O613        O  0.15203926  0.24115119  0.68230825    -0.78000
O614        O  0.14913814  0.11312212  0.64612463    -0.83200
C615        C  0.20983906  0.14175894  0.69486922     0.97800
C616        C  0.16821374  0.10711034  0.62403135     1.03700
O617        O  0.22449801  0.14526987  0.66975364    -0.78900
C618        C  0.13598273  0.22418886  0.70146726     1.02000
Fe619      Fe  0.34282786  0.98794303  0.85724037     1.65800
Fe620      Fe  0.35397063  0.06474214  0.82950214     1.73200
Fe621      Fe  0.27862047  0.04637906  0.86676374     1.54400
O622        O  0.25010557  0.50291339  0.84980578    -0.82600
O623        O  0.34132677  0.10734588  0.85408055    -0.80900
O624        O  0.29087959  0.46292939  0.86059340    -0.85100
O625        O  0.34741013  0.99565983  0.90215078    -0.80000
O626        O  0.26050565  0.06990146  0.82576588    -0.81800
O627        O  0.40045516  0.05652827  0.85783687    -0.84500
C628        C  0.32478475  0.00904097  0.91869544     0.96300
C629        C  0.25794809  0.47259625  0.85501738     1.03700
O630        O  0.32471776  0.03341502  0.85138626    -1.13500
O631        O  0.36789411  0.02673415  0.80037295    -0.75900
O632        O  0.33766221  0.47573730  0.81253448    -0.79400
O633        O  0.29564588  0.02441178  0.90833462    -0.80100
C634        C  0.35093013  0.99963607  0.79278196     0.95200
O635        O  0.39810745  0.00132740  0.85544029    -0.78000
O636        O  0.31051254  0.07465345  0.79980827    -0.83200
C637        C  0.31928269  0.11282907  0.87428468     0.97800
C638        C  0.27628189  0.07773270  0.80196166     1.03700
O639        O  0.29919127  0.09012262  0.88410408    -0.78900
C640        C  0.41628270  0.02831890  0.86007518     1.02000
C641        C  0.25559965  0.09189866  0.77502562    -0.07100
C642        C  0.26620376  0.08211289  0.74665597    -0.18200
C643        C  0.25387814  0.09902783  0.72026764     0.10100
C644        C  0.22970173  0.12633163  0.72179126    -0.07000
C645        C  0.21912733  0.13603986  0.75025745    -0.18200
C646        C  0.23146704  0.11912844  0.77660248     0.10200
S647        S  0.26914722  0.08384161  0.68548943    -0.33200
S648        S  0.21731676  0.13481201  0.81162194    -0.33200
H649        H  0.20267622  0.10377118  0.82007497     0.28200
H650        H  0.28458432  0.11488944  0.67799027     0.28200
H651        H  0.28515133  0.06149259  0.74511125     0.18800
H652        H  0.20053858  0.15689374  0.75203765     0.18800
C653        C  0.31182097  0.32067553  0.62946440    -0.07100
C654        C  0.29623919  0.31690630  0.65727193    -0.18200
C655        C  0.27271672  0.29009710  0.66278505     0.10100
C656        C  0.26537147  0.26560152  0.64056768    -0.07000
C657        C  0.28544540  0.26627185  0.61497128    -0.18200
C658        C  0.30842309  0.29362816  0.60894209     0.10200
S659        S  0.25113504  0.28973504  0.69773028    -0.33200
S660        S  0.32907358  0.29526682  0.57342030    -0.33200
H661        H  0.31527794  0.26441145  0.56217081     0.28200
H662        H  0.24475188  0.25495455  0.69854231     0.28200
H663        H  0.29950922  0.33672625  0.67382846     0.18800
H664        H  0.28084381  0.24651507  0.59857047     0.18800
C665        C  0.22705741  0.01787044  0.60984414    -0.07100
C666        C  0.21466406  0.03735529  0.58500899    -0.18200
C667        C  0.19035162  0.06404749  0.58806449     0.10100
C668        C  0.17907676  0.07237695  0.61681222    -0.07000
C669        C  0.18883148  0.05079227  0.64098836    -0.18200
C670        C  0.21238143  0.02363791  0.63774086     0.10200
S671        S  0.17590458  0.08749197  0.55467501    -0.33200
S672        S  0.22519923  0.99888208  0.67064454    -0.33200
H673        H  0.22448434  0.96827152  0.65516065     0.28200
H674        H  0.14318011  0.09929471  0.56556195     0.28200
H675        H  0.22487660  0.03247121  0.56332110     0.18800
H676        H  0.18071287  0.05669074  0.66319099     0.18800
C677        C  0.33346849  0.46186639  0.70067933    -0.07100
C678        C  0.36581069  0.47980616  0.71036513    -0.18200
C679        C  0.35380183  0.01140467  0.73695028     0.10100
C680        C  0.34898960  0.47995557  0.76160720    -0.07000
C681        C  0.31781925  0.46045899  0.75248134    -0.18200
C682        C  0.31011836  0.45078570  0.72260433     0.10200
S683        S  0.37416322  0.05250843  0.74187940    -0.33200
S684        S  0.27035303  0.42438687  0.71445334    -0.33200
H685        H  0.28941697  0.40126107  0.69781782     0.28200
H686        H  0.40630701  0.04012455  0.75744348     0.28200
H687        H  0.34938843  0.01921272  0.68956861     0.18800
H688        H  0.29871470  0.45312370  0.76874463     0.18800
C689        C  0.33212292  0.00484611  0.95135437    -0.07100
C690        C  0.30212632  0.00133200  0.96891077    -0.18200
C691        C  0.30535669  0.49228542  0.49941582     0.10100
C692        C  0.34149895  0.48591374  0.51191754    -0.07000
C693        C  0.37181469  0.48666194  0.99437930    -0.18200
C694        C  0.36708531  0.49699160  0.96448572     0.10200
S695        S  0.26441311  0.98660206  0.51905604    -0.33200
S696        S  0.40841204  0.50466079  0.94565116    -0.33200
H697        H  0.39425895  0.53246093  0.92918341     0.28200
H698        H  0.27821986  0.46017704  0.53793151     0.28200
H699        H  0.27437810  0.00473770  0.95888971     0.18800
H700        H  0.39931617  0.48208005  0.00446555     0.18800
C701        C  0.22990631  0.33996424  0.97239282    -0.07100
C702        C  0.22048607  0.32961617  0.00114704    -0.18200
C703        C  0.23695601  0.34395009  0.52507386     0.10100
C704        C  0.25663786  0.37434845  0.52280678    -0.07000
C705        C  0.26369774  0.38656428  0.99626988    -0.18200
C706        C  0.25200815  0.36889240  0.97021844     0.10200
S707        S  0.22553614  0.32586503  0.56026510    -0.33200
S708        S  0.26502567  0.38544417  0.93498953    -0.33200
H709        H  0.28189456  0.35551412  0.92704194     0.28200
H710        H  0.25882908  0.33425116  0.57619117     0.28200
H711        H  0.20321257  0.30766800  0.00337469     0.18800
H712        H  0.27881827  0.40949646  0.49182562     0.18800
C713        C  0.14369450  0.23054470  0.98335513    -0.07100
C714        C  0.18048854  0.22735699  0.99470852    -0.18200
C715        C  0.18957935  0.21884964  0.52406911     0.10100
C716        C  0.16126984  0.21647130  0.54383386    -0.07000
C717        C  0.12438143  0.21977889  0.53225596    -0.18200
C718        C  0.11516583  0.22560107  0.00233695     0.10200
S719        S  0.23768889  0.21848550  0.53651829    -0.33200
S720        S  0.06713274  0.22794871  0.98944785    -0.36400
H721        H  0.07136962  0.21723228  0.95996904     0.28200
H722        H  0.23323965  0.24108443  0.56000665     0.28200
H723        H  0.20247313  0.23179819  0.98008446     0.18800
H724        H  0.10222807  0.21748343  0.54701726     0.18800
C725        C  0.13925227  0.23567774  0.73304212    -0.07100
C726        C  0.16820108  0.25790389  0.74204767    -0.18200
C727        C  0.17664374  0.26611065  0.77219541     0.10100
C728        C  0.15635636  0.25106388  0.79443586    -0.07000
C729        C  0.12642886  0.22988919  0.78512793    -0.18200
C730        C  0.11723856  0.22269610  0.75501198     0.10200
S731        S  0.21333095  0.29595913  0.78028664    -0.33200
S732        S  0.07660456  0.19738379  0.74650065    -0.33200
H733        H  0.06416377  0.21657414  0.72127160     0.28200
H734        H  0.19232069  0.31616313  0.79813886     0.28200
H735        H  0.18494771  0.26870658  0.72551397     0.18800
H736        H  0.10954368  0.21861463  0.80141005     0.18800
C737        C  0.22769665  0.44810151  0.85697787    -0.07100
C738        C  0.21061725  0.44594859  0.88401387    -0.18200
C739        C  0.18644571  0.41952126  0.88961345     0.10100
C740        C  0.17989028  0.39385227  0.86796407    -0.07000
C741        C  0.19406486  0.39834580  0.83965196    -0.18200
C742        C  0.21773387  0.42504554  0.83399205     0.10200
S743        S  0.16792323  0.41865765  0.92583072    -0.33200
S744        S  0.23598662  0.42712337  0.79768763    -0.33200
H745        H  0.24163276  0.46201988  0.79763643     0.28200
H746        H  0.13213275  0.41043384  0.91397988     0.28200
H747        H  0.21755650  0.46415827  0.90153212     0.18800
H748        H  0.18877228  0.37959397  0.82234393     0.18800
C749        C  0.26223207  0.20107297  0.88944673    -0.07100
C750        C  0.27022406  0.17924123  0.91363293    -0.18200
C751        C  0.29515601  0.15293319  0.91139951     0.10100
C752        C  0.31132514  0.14740299  0.88394479    -0.07000
C753        C  0.30695533  0.17196164  0.86138477    -0.18200
C754        C  0.28227968  0.19840778  0.86374240     0.10200
S755        S  0.30331933  0.12572874  0.94354871    -0.33200
S756        S  0.27428793  0.22584875  0.83189248    -0.33200
H757        H  0.23618511  0.21963418  0.82935311     0.28200
H758        H  0.33666378  0.11284695  0.93474424     0.28200
H759        H  0.25598753  0.18192192  0.93390568     0.18800
H760        H  0.31904259  0.16830543  0.84022357     0.18800
C761        C  0.95531339  0.19503045  0.61348567    -0.07100
C762        C  0.97612068  0.16879253  0.60261086    -0.18200
C763        C  0.01462130  0.16813228  0.60726022     0.10100
C764        C  0.03351905  0.19386964  0.62401627    -0.07000
C765        C  0.01276540  0.22029774  0.63469030    -0.18200
C766        C  0.97419393  0.22096473  0.62997874     0.10200
S767        S  0.03795141  0.13454976  0.58984346    -0.33200
S768        S  0.95065925  0.25442664  0.64731576    -0.33200
H769        H  0.92188461  0.23387876  0.65622581     0.28200
H770        H  0.06746376  0.15466707  0.58163794     0.28200
H771        H  0.96233950  0.14899396  0.58943632     0.18800
H772        H  0.02656102  0.24000693  0.64796419     0.18800
C773        C  0.53543968  0.02593044  0.87510357    -0.07100
C774        C  0.51410635  0.99799260  0.88242479    -0.18200
C775        C  0.47565873  0.99794901  0.87790945     0.10100
C776        C  0.45710844  0.02686728  0.86628484    -0.07000
C777        C  0.47841447  0.05481279  0.85890888    -0.18200
C778        C  0.51698531  0.05444383  0.86247342     0.10200
S779        S  0.45460595  0.45773583  0.88723449    -0.33200
S780        S  0.54067718  0.09068970  0.84906013    -0.33200
H781        H  0.56767707  0.07191297  0.83586325     0.28200
H782        H  0.44424250  0.44930937  0.85718891     0.28200
H783        H  0.52740419  0.97594836  0.89231441     0.18800
H784        H  0.46498618  0.07690117  0.84922779     0.18800
C785        C  0.75319406  0.12607526  0.52600311    -0.07100
C786        C  0.75100627  0.09094818  0.52589036    -0.18200
C787        C  0.73971710  0.07078676  0.99933015     0.10100
C788        C  0.73365338  0.08748793  0.97135732    -0.07000
C789        C  0.73825271  0.12235248  0.97029940    -0.18200
C790        C  0.74864926  0.14072503  0.99629124     0.10200
S791        S  0.73854973  0.02816711  0.50173840    -0.33200
S792        S  0.75287246  0.18559725  0.99253060    -0.33200
H793        H  0.73954855  0.19431651  0.52771138     0.28200
H794        H  0.74084433  0.01822722  0.97300430     0.28200
H795        H  0.75932562  0.07708555  0.54618917     0.18800
H796        H  0.73208177  0.13559354  0.94927644     0.18800
C797        C  0.53365798  0.44186286  0.62874432    -0.07100
C798        C  0.51191628  0.41635358  0.64026541    -0.18200
C799        C  0.47350695  0.41629478  0.63530475     0.10100
C800        C  0.45588360  0.44171646  0.61742557    -0.07000
C801        C  0.47757505  0.46749119  0.60620923    -0.18200
C802        C  0.51602365  0.46768936  0.61139771     0.10200
S803        S  0.44862270  0.38407933  0.65387798    -0.33200
S804        S  0.54101260  0.50045455  0.59370369    -0.33200
H805        H  0.56889952  0.47914915  0.58514127     0.28200
H806        H  0.41969135  0.40514909  0.66083079     0.28200
H807        H  0.52487150  0.39679540  0.65416201     0.18800
H808        H  0.46462865  0.48700473  0.59226541     0.18800
C809        C  0.67880550  0.32590177  0.60372017    -0.07100
C810        C  0.67763751  0.29764006  0.62237405    -0.18200
C811        C  0.70041552  0.27006733  0.61842003     0.10100
C812        C  0.72522634  0.27077956  0.59549642    -0.07000
C813        C  0.72269834  0.29690422  0.57447109    -0.18200
C814        C  0.69872045  0.32371076  0.57771853     0.10200
S815        S  0.70063054  0.23707076  0.64603302    -0.33200
S816        S  0.69628586  0.35563762  0.54901859    -0.33200
H817        H  0.66139340  0.36686508  0.55579517     0.28200
H818        H  0.69405529  0.21167417  0.62452144     0.28200
H819        H  0.66204034  0.29843930  0.64203902     0.18800
H820        H  0.74031729  0.29697987  0.55599665     0.18800
C821        C  0.75659625  0.02484172  0.63983633    -0.07100
C822        C  0.75928601  0.04980750  0.66173590    -0.18200
C823        C  0.78248380  0.07779754  0.65906670     0.10100
C824        C  0.80305865  0.08128023  0.63329529    -0.07000
C825        C  0.80236026  0.05462687  0.61276432    -0.18200
C826        C  0.77910608  0.02690839  0.61556226     0.10200
S827        S  0.78443078  0.10882736  0.68861492    -0.33200
S828        S  0.77883785  0.49457200  0.58709542    -0.33200
H829        H  0.74073238  0.49878381  0.58124459     0.28200
H830        H  0.75857749  0.09383079  0.70638213     0.28200
H831        H  0.74242852  0.04764434  0.68057306     0.18800
H832        H  0.81745118  0.05662872  0.59286601     0.18800
C833        C  0.63522881  0.48552900  0.98628090    -0.07100
C834        C  0.64256914  0.01290305  0.50735785    -0.18200
C835        C  0.65585727  0.50698701  0.53744128     0.10100
C836        C  0.66041553  0.47358084  0.54735163    -0.07000
C837        C  0.65315012  0.44724770  0.52718887    -0.18200
C838        C  0.64013327  0.45195763  0.99615752     0.10200
S839        S  0.66417650  0.04056206  0.56299719    -0.33200
S840        S  0.63051511  0.41628182  0.97208858    -0.33200
H841        H  0.60233931  0.43195261  0.95395878     0.28200
H842        H  0.65922480  0.06659711  0.54177345     0.28200
H843        H  0.64021472  0.03865792  0.49976663     0.18800
H844        H  0.65527244  0.42163044  0.53512633     0.18800
C845        C  0.64760022  0.47474211  0.73814759    -0.07100
C846        C  0.65409272  0.44852101  0.75891321    -0.18200
C847        C  0.66586128  0.45491170  0.78886447     0.10100
C848        C  0.66771085  0.98603353  0.79800143    -0.07000
C849        C  0.66539959  0.01214957  0.77700154    -0.18200
C850        C  0.65304177  0.50829276  0.74816858     0.10200
S851        S  0.67403333  0.41936549  0.81351288    -0.33200
S852        S  0.64870150  0.04250744  0.72281747    -0.33200
H853        H  0.61160222  0.52972293  0.70916798     0.28200
H854        H  0.70159669  0.43492715  0.83249134     0.28200
H855        H  0.65115926  0.42270096  0.75161128     0.18800
H856        H  0.67051082  0.03771751  0.78446756     0.18800
C857        C  0.95654960  0.27742784  0.86436337    -0.07100
C858        C  0.97951208  0.30041067  0.85073002    -0.18200
C859        C  0.01780189  0.29923901  0.85593800     0.10100
C860        C  0.03399808  0.27488832  0.87577143    -0.07000
C861        C  0.01113727  0.25167714  0.88922398    -0.18200
C862        C  0.97275209  0.25298923  0.88414990     0.10200
S863        S  0.04439138  0.32870517  0.83560861    -0.33200
S864        S  0.94609397  0.22433796  0.90521759    -0.33200
H865        H  0.91857734  0.24766511  0.91048830     0.28200
H866        H  0.07335006  0.30647999  0.83147259     0.28200
H867        H  0.96757866  0.31896096  0.83516989     0.18800
H868        H  0.02316603  0.23333612  0.90495646     0.18800
C869        C  0.73471882  0.37449761  0.71930733    -0.07100
C870        C  0.75180276  0.39607720  0.74079977    -0.18200
C871        C  0.76113835  0.38496221  0.77018296     0.10100
C872        C  0.75374759  0.35133626  0.77837506    -0.07000
C873        C  0.73596436  0.33002141  0.75703137    -0.18200
C874        C  0.72678602  0.34112395  0.72768676     0.10200
S875        S  0.78135249  0.41520953  0.79654355    -0.33200
S876        S  0.70524386  0.31135856  0.70160377    -0.33200
H877        H  0.71904009  0.32593635  0.67599050     0.28200
H878        H  0.76904014  0.39961309  0.82228711     0.28200
H879        H  0.75606968  0.42217422  0.73514779     0.18800
H880        H  0.73124542  0.30398964  0.76267093     0.18800
C881        C  0.82905446  0.23455049  0.69252697    -0.07100
C882        C  0.82343178  0.26798145  0.70024366    -0.18200
C883        C  0.83343589  0.27961169  0.72918798     0.10100
C884        C  0.84808605  0.25690303  0.75137681    -0.07000
C885        C  0.85465691  0.22364134  0.74308303    -0.18200
C886        C  0.84618719  0.21251685  0.71381381     0.10200
S887        S  0.82577679  0.32325790  0.73623022    -0.33200
S888        S  0.85840238  0.17015840  0.70500212    -0.33200
H889        H  0.86673991  0.17652602  0.67529390     0.28200
H890        H  0.86273772  0.32949102  0.74614902     0.28200
H891        H  0.81177097  0.28530459  0.68338337     0.18800
H892        H  0.86648196  0.20604657  0.75961311     0.18800
C893        C  0.82948638  0.24211959  0.94232427    -0.07100
C894        C  0.83744588  0.26833309  0.96252768    -0.18200
C895        C  0.84753262  0.26305257  0.49279306     0.10100
C896        C  0.84944639  0.22953275  0.50322335    -0.07000
C897        C  0.84655616  0.20200595  0.98168483    -0.18200
C898        C  0.83451804  0.20857541  0.95190718     0.10200
S899        S  0.86094177  0.29851100  0.51615301    -0.33200
S900        S  0.82391889  0.17305223  0.92778155    -0.33200
H901        H  0.79462337  0.18836178  0.91066551     0.28200
H902        H  0.88793776  0.28125207  0.53424411     0.28200
H903        H  0.83525933  0.29411012  0.95482343     0.18800
H904        H  0.84840806  0.17616335  0.98923030     0.18800
C905        C  0.81140144  0.39153473  0.89658058    -0.07100
C906        C  0.78571474  0.39015511  0.91864616    -0.18200
C907        C  0.76136832  0.41663083  0.92226528     0.10100
C908        C  0.76369874  0.44550850  0.90435583    -0.07000
C909        C  0.79355706  0.44924474  0.88646203    -0.18200
C910        C  0.81778606  0.42270888  0.88275962     0.10200
S911        S  0.72619869  0.41271694  0.94844214    -0.33200
S912        S  0.85323747  0.42885771  0.85733254    -0.33200
H913        H  0.87932984  0.40966176  0.87458742     0.28200
H914        H  0.73756621  0.38160318  0.96067289     0.28200
H915        H  0.78161198  0.36672406  0.93026687     0.18800
H916        H  0.79638478  0.47198837  0.87349314     0.18800
C917        C  0.73165280  0.19329959  0.84614642    -0.07100
C918        C  0.70630276  0.19497890  0.86838487    -0.18200
C919        C  0.68453979  0.16728482  0.87546380     0.10100
C920        C  0.68816234  0.13659460  0.86022385    -0.07000
C921        C  0.71097251  0.13625011  0.83594276    -0.18200
C922        C  0.73260533  0.16391470  0.82889414     0.10200
S923        S  0.65441012  0.17258822  0.90516623    -0.33200
S924        S  0.76155302  0.15970110  0.79815357    -0.33200
H925        H  0.76023283  0.19373048  0.78978985     0.28200
H926        H  0.62482261  0.15542591  0.88984290     0.28200
H927        H  0.70484218  0.21753751  0.88163940     0.18800
H928        H  0.71368845  0.11358082  0.82308306     0.18800
Fe929      Fe  0.84205185  0.73954751  0.34717698     1.65800
Fe930      Fe  0.85233095  0.82282986  0.33119679     1.73200
Fe931      Fe  0.77611228  0.79508473  0.36301940     1.54400
O932        O  0.74906513  0.75166139  0.35078068    -0.82600
O933        O  0.84679191  0.85564099  0.36693454    -0.80900
O934        O  0.79162785  0.71483771  0.34196969    -0.85100
O935        O  0.84023621  0.73724208  0.39260613    -0.80000
O936        O  0.75645000  0.81690159  0.32216026    -0.81800
O937        O  0.90179752  0.80804336  0.35183443    -0.84500
C938        C  0.82084873  0.75181611  0.41110298     0.96300
C939        C  0.75850321  0.72222437  0.34526527     1.03700
O940        O  0.82355677  0.78575555  0.34734515    -1.13500
O941        O  0.85912750  0.79468181  0.29262533    -0.75900
O942        O  0.84316172  0.74144951  0.30166487    -0.79400
O943        O  0.79588139  0.77348019  0.40376928    -0.80100
C944        C  0.85081220  0.76496116  0.28384220     0.95200
O945        O  0.89726499  0.75274746  0.35327969    -0.78000
O946        O  0.80710031  0.84306639  0.30850833    -0.83200
C947        C  0.81817912  0.86102428  0.38067207     0.97800
C948        C  0.77297887  0.83681636  0.30503666     1.03700
O949        O  0.79151048  0.84071780  0.37940583    -0.78900
C950        C  0.91597291  0.77953046  0.35645053     1.02000
Fe951      Fe  0.64662667  0.98147920  0.14173244     1.65800
Fe952      Fe  0.63736182  0.90172021  0.16457575     1.73200
Fe953      Fe  0.71309437  0.92562482  0.12971813     1.54400
O954        O  0.69413482  0.94807020  0.08847514    -0.82600
O955        O  0.68127289  0.88696476  0.19151913    -0.80900
O956        O  0.64280551  0.97722828  0.09645114    -0.85100
O957        O  0.69634351  0.00628687  0.13914425    -0.80000
O958        O  0.69617701  0.88081631  0.11219803    -0.81800
O959        O  0.62714986  0.93596075  0.19889983    -0.84500
C960        C  0.72985784  0.99825245  0.14163197     0.96300
C961        C  0.66581459  0.96545739  0.07929470     1.03700
O962        O  0.66596658  0.93589300  0.14503070    -1.13500
O963        O  0.58983788  0.91268404  0.13888807    -0.75900
O964        O  0.59136943  0.96775568  0.14262409    -0.79400
O965        O  0.73996653  0.96829731  0.14438839    -0.80100
C966        C  0.57386993  0.94066985  0.13692757     0.95200
O967        O  0.65274892  0.98488926  0.18712914    -0.78000
O968        O  0.64706556  0.86311568  0.13435173    -0.83200
C969        C  0.71583964  0.88895231  0.19170880     0.97800
C970        C  0.67224307  0.85873945  0.11648679     1.03700
O971        O  0.73265340  0.90273955  0.17062974    -0.78900
C972        C  0.64169465  0.96443441  0.20633185     1.02000
Fe973      Fe  0.64636397  0.48204408  0.39146781     1.65800
Fe974      Fe  0.63722000  0.55977644  0.41755585     1.73200
Fe975      Fe  0.71142663  0.54015835  0.38107349     1.54400
O976        O  0.74150123  0.00186085  0.40337387    -0.82600
O977        O  0.65562709  0.60177246  0.39343226    -0.80900
O978        O  0.70089950  0.96049120  0.39500155    -0.85100
O979        O  0.64562191  0.48594700  0.34615663    -0.80000
O980        O  0.72729648  0.56923622  0.42002012    -0.81800
O981        O  0.59209850  0.55330421  0.38760616    -0.84500
C982        C  0.67124909  0.49569403  0.33048676     0.96300
C983        C  0.73359129  0.97102293  0.40167527     1.03700
O984        O  0.66522782  0.52735340  0.39646866    -1.13500
O985        O  0.61796081  0.52311402  0.44628338    -0.75900
O986        O  0.64875992  0.97710357  0.43681417    -0.79400
O987        O  0.69917933  0.51270462  0.34118276    -0.80100
C988        C  0.63346890  0.49577512  0.45481754     0.95200
O989        O  0.59100978  0.49762457  0.38873522    -0.78000
O990        O  0.67972970  0.56665107  0.44880004    -0.83200
C991        C  0.67453700  0.60504146  0.37068558     0.97800
C992        C  0.71280596  0.57389546  0.44499324     1.03700
O993        O  0.68754885  0.57970868  0.35868085    -0.78900
C994        C  0.57479759  0.52569203  0.38391560     1.02000
Fe995      Fe  0.84246956  0.73742178  0.09822827     1.65800
Fe996      Fe  0.85234220  0.65905496  0.07416177     1.73200
Fe997      Fe  0.78058858  0.67801170  0.11354675     1.54400
O998        O  0.79504901  0.70654037  0.15236433    -0.82600
O999        O  0.80832196  0.65146513  0.04453628    -0.80900
O1000       O  0.84603097  0.73572569  0.14354510    -0.85100
O1001       O  0.78962215  0.75825861  0.09806393    -0.80000
O1002       O  0.80752576  0.63972703  0.13544683    -0.81800
O1003       O  0.87041090  0.69502688  0.04432414    -0.84500
C1004       C  0.75670974  0.74697746  0.09518364     0.96300
C1005       C  0.82289076  0.72481658  0.16096657     1.03700
O1006       O  0.82480071  0.69159105  0.09550913    -1.13500
O1007       O  0.89813194  0.66682673  0.10305645    -0.75900
O1008       O  0.89822309  0.72261888  0.09985169    -0.79400
O1009       O  0.74952438  0.71597394  0.09423073    -0.80100
C1010       C  0.91487778  0.69488769  0.10555632     0.95200
O1011       O  0.83826520  0.74049623  0.05282327    -0.78000
O1012       O  0.83534306  0.61709922  0.09878960    -0.83200
C1013       C  0.77590614  0.64333929  0.04999265     0.97800
C1014       C  0.81774805  0.61411992  0.12226100     1.03700
O1015       O  0.76308226  0.64776175  0.07570109    -0.78900
C1016       C  0.85434568  0.72186297  0.03525696     1.02000
Fe1017     Fe  0.14583591  0.73340271  0.38835548     1.65800
Fe1018     Fe  0.13463640  0.80752635  0.41970705     1.73200
Fe1019     Fe  0.20720778  0.79472240  0.37965239     1.54400
O1020       O  0.23844923  0.75510584  0.39591914    -0.82600
O1021       O  0.15039702  0.85237552  0.39885780    -0.80900
O1022       O  0.19856799  0.71370128  0.38506741    -0.85100
O1023       O  0.14062487  0.74312220  0.34408158    -0.80000
O1024       O  0.22328833  0.82133018  0.42014775    -0.81800
O1025       O  0.08989728  0.80216037  0.38961410    -0.84500
C1026       C  0.16423963  0.75501162  0.32752132     0.96300
C1027       C  0.23128784  0.72447682  0.39100997     1.03700
O1028       O  0.16313110  0.77855493  0.39596858    -1.13500
O1029       O  0.11811726  0.76709048  0.44568333    -0.75900
O1030       O  0.15205720  0.72419886  0.43286061    -0.79400
O1031       O  0.19343753  0.77019705  0.33831337    -0.80100
C1032       C  0.13679345  0.74083350  0.45233643     0.95200
O1033       O  0.09003439  0.74645697  0.38976103    -0.78000
O1034       O  0.17770957  0.81313453  0.45015189    -0.83200
C1035       C  0.16768237  0.85840497  0.37569729     0.97800
C1036       C  0.20966880  0.82360048  0.44582367     1.03700
O1037       O  0.17993075  0.83474873  0.36089881    -0.78900
C1038       C  0.07348346  0.77431951  0.38503599     1.02000
Fe1039     Fe  0.34320677  0.98006648  0.10732829     1.65800
Fe1040     Fe  0.35343650  0.90563380  0.07562918     1.73200
Fe1041     Fe  0.27950014  0.92059160  0.11434386     1.54400
O1042       O  0.29536679  0.94326404  0.15632537    -0.82600
O1043       O  0.31024415  0.89732821  0.04548115    -0.80900
O1044       O  0.34946259  0.96850695  0.15124174    -0.85100
O1045       O  0.29163281  0.00087470  0.11332356    -0.80000
O1046       O  0.30267333  0.87825367  0.13227374    -0.81800
O1047       O  0.36741714  0.94608351  0.04831124    -0.84500
C1048       C  0.25859885  0.99175760  0.10649400     0.96300
C1049       C  0.32551204  0.95662765  0.16754877     1.03700
O1050       O  0.32489909  0.93507868  0.09899167    -1.13500
O1051       O  0.39919103  0.91227259  0.10477296    -0.75900
O1052       O  0.39857701  0.96765987  0.10412466    -0.79400
O1053       O  0.25065479  0.96208322  0.09856653    -0.80100
C1054       C  0.41553877  0.94015442  0.10898769     0.95200
O1055       O  0.33592512  0.99016113  0.06289465    -0.78000
O1056       O  0.33978889  0.86135839  0.09846668    -0.83200
C1057       C  0.27695265  0.89035464  0.04890475     0.97800
C1058       C  0.31976289  0.85525624  0.12008359     1.03700
O1059       O  0.26194168  0.89567284  0.07356479    -0.78900
C1060       C  0.34940837  0.97307203  0.04264220     1.02000
Fe1061     Fe  0.14794976  0.73252088  0.13762652     1.65800
Fe1062     Fe  0.13407435  0.65719861  0.16752962     1.73200
Fe1063     Fe  0.20845054  0.67046224  0.12868664     1.54400
O1064       O  0.19476882  0.69379330  0.08715639    -0.82600
O1065       O  0.17679701  0.65032595  0.19835891    -0.80900
O1066       O  0.14505760  0.72522233  0.09277271    -0.85100
O1067       O  0.20107716  0.75244692  0.13664203    -0.80000
O1068       O  0.18227409  0.62927609  0.11042983    -0.81800
O1069       O  0.11795636  0.69666914  0.19397129    -0.84500
C1070       C  0.23368164  0.74133251  0.14093420     0.96300
C1071       C  0.16748291  0.71131179  0.07647158     1.03700
O1072       O  0.16395603  0.68667628  0.14445990    -1.13500
O1073       O  0.08912454  0.66392934  0.13735338    -0.75900
O1074       O  0.09168595  0.71963847  0.13684267    -0.79400
O1075       O  0.24047851  0.71042701  0.14369500    -0.80100
C1076       C  0.07378852  0.69217638  0.13259410     0.95200
O1077       O  0.15171575  0.74046607  0.18262052    -0.78000
O1078       O  0.14886315  0.61239157  0.14681083    -0.83200
C1079       C  0.20967805  0.64210926  0.19493711     0.97800
C1080       C  0.16774755  0.60610093  0.12469669     1.03700
O1081       O  0.22419081  0.64530511  0.16972873    -0.78900
C1082       C  0.13544905  0.72342089  0.20158982     1.02000
Fe1083     Fe  0.34068062  0.48778752  0.35763568     1.65800
Fe1084     Fe  0.35306078  0.56455220  0.33023380     1.73200
Fe1085     Fe  0.27694836  0.54686008  0.36678387     1.54400
O1086       O  0.24946518  0.00200541  0.34977146    -0.82600
O1087       O  0.34087123  0.60714468  0.35494827    -0.80900
O1088       O  0.28993565  0.96154507  0.36015827    -0.85100
O1089       O  0.34467072  0.49553953  0.40255605    -0.80000
O1090       O  0.25968755  0.57079351  0.32582122    -0.81800
O1091       O  0.39906681  0.55577065  0.35885194    -0.84500
C1092       C  0.32210112  0.50928558  0.41894351     0.96300
C1093       C  0.25708286  0.97155339  0.35463722     1.03700
O1094       O  0.32311967  0.53343921  0.35172852    -1.13500
O1095       O  0.36669108  0.52653710  0.30101100    -0.75900
O1096       O  0.33737108  0.97339908  0.31252811    -0.79400
O1097       O  0.29306633  0.52467343  0.40842421    -0.80100
C1098       C  0.34949483  0.49960986  0.29324221     0.95200
O1099       O  0.39645579  0.50056771  0.35641200    -0.78000
O1100       O  0.31011039  0.57515657  0.30033429    -0.83200
C1101       C  0.31871718  0.61271191  0.37504011     0.97800
C1102       C  0.27589393  0.57862925  0.30224027     1.03700
O1103       O  0.29803714  0.59022112  0.38444212    -0.78900
C1104       C  0.41477536  0.52752711  0.36111973     1.02000
C1105       C  0.25573368  0.59312733  0.27524994    -0.07100
C1106       C  0.26675632  0.58349429  0.24697425    -0.18200
C1107       C  0.25453686  0.60034370  0.22055620     0.10100
C1108       C  0.22987079  0.62728271  0.22193809    -0.07000
C1109       C  0.21915043  0.63707065  0.25033460    -0.18200
C1110       C  0.23155179  0.62033354  0.27674180     0.10200
S1111       S  0.27064433  0.58555606  0.18593356    -0.33200
S1112       S  0.21744360  0.63621903  0.31170577    -0.33200
H1113       H  0.20231061  0.60536125  0.32009026     0.28200
H1114       H  0.28539407  0.61694657  0.17857783     0.28200
H1115       H  0.28591120  0.56301733  0.24552219     0.18800
H1116       H  0.20036280  0.65779216  0.25199858     0.18800
C1117       C  0.31128956  0.82043331  0.13010552    -0.07100
C1118       C  0.29430792  0.81720021  0.15736111    -0.18200
C1119       C  0.27078028  0.79033928  0.16263034     0.10100
C1120       C  0.26484896  0.76522423  0.14079636    -0.07000
C1121       C  0.28621515  0.76544122  0.11592999    -0.18200
C1122       C  0.30936735  0.79279447  0.11020248     0.10200
S1123       S  0.24734508  0.79069083  0.19670977    -0.33200
S1124       S  0.33257728  0.79341771  0.07586073    -0.33200
H1125       H  0.31943770  0.76230371  0.06471150     0.28200
H1126       H  0.24125954  0.75589200  0.19808421     0.28200
H1127       H  0.29651809  0.83739390  0.17357163     0.18800
H1128       H  0.28249191  0.74535022  0.09976190     0.18800
C1129       C  0.22674945  0.51704190  0.11030615    -0.07100
C1130       C  0.21274370  0.53568800  0.08541946    -0.18200
C1131       C  0.18834728  0.56226736  0.08878839     0.10100
C1132       C  0.17860146  0.57128808  0.11780920    -0.07000
C1133       C  0.18987584  0.55045579  0.14215377    -0.18200
C1134       C  0.21348031  0.52341316  0.13863755     0.10200
S1135       S  0.17172317  0.58470532  0.05540594    -0.33200
S1136       S  0.22795372  0.49938658  0.17159242    -0.33200
H1137       H  0.22581796  0.46846525  0.15657386     0.28200
H1138       H  0.13980716  0.59680925  0.06741412     0.28200
H1139       H  0.22178728  0.53028943  0.06342165     0.18800
H1140       H  0.18286367  0.55687167  0.16455651     0.18800
C1141       C  0.33368726  0.96045822  0.20053334    -0.07100
C1142       C  0.36652975  0.97745684  0.21052845    -0.18200
C1143       C  0.35417671  0.51110196  0.23748500     0.10100
C1144       C  0.34945396  0.97712406  0.26169993    -0.07000
C1145       C  0.31796685  0.95823967  0.25228172    -0.18200
C1146       C  0.31019946  0.94915821  0.22227831     0.10200
S1147       S  0.37626445  0.55143937  0.24276029    -0.33200
S1148       S  0.27022238  0.92312871  0.21376158    -0.33200
H1149       H  0.28918710  0.90013820  0.19690909     0.28200
H1150       H  0.40731989  0.53795305  0.25907140     0.28200
H1151       H  0.35176624  0.51869717  0.19010852     0.18800
H1152       H  0.29866996  0.95099143  0.26839201     0.18800
C1153       C  0.32960817  0.50570509  0.45162874    -0.07100
C1154       C  0.29985031  0.50206645  0.46942328    -0.18200
C1155       C  0.30714679  0.99133205  0.99885259     0.10100
C1156       C  0.34307249  0.98463337  0.01162817    -0.07000
C1157       C  0.37124197  0.98663542  0.49441258    -0.18200
C1158       C  0.36639922  0.99669745  0.46444968     0.10200
S1159       S  0.26508612  0.48767841  0.01914452    -0.33200
S1160       S  0.40759002  0.00483669  0.44556444    -0.33200
H1161       H  0.39284130  0.03208334  0.42865241     0.28200
H1162       H  0.27918619  0.95950607  0.03716582     0.28200
H1163       H  0.27198373  0.50511122  0.45955230     0.18800
H1164       H  0.39879820  0.98249209  0.50456779     0.18800
C1165       C  0.22937733  0.84007609  0.47226297    -0.07100
C1166       C  0.22049579  0.82929805  0.50102959    -0.18200
C1167       C  0.23786004  0.84349532  0.02465438     0.10100
C1168       C  0.25694013  0.87421261  0.02258593    -0.07000
C1169       C  0.26231972  0.88713079  0.49624232    -0.18200
C1170       C  0.25068855  0.86951868  0.47011683     0.10200
S1171       S  0.22752038  0.82460165  0.05979264    -0.33200
S1172       S  0.26256650  0.88682897  0.43484177    -0.33200
H1173       H  0.27994061  0.85739495  0.42630407     0.28200
H1174       H  0.26119298  0.83299247  0.07515259     0.28200
H1175       H  0.20376457  0.80696689  0.50323435     0.18800
H1176       H  0.27855991  0.90999408  0.99187942     0.18800
C1177       C  0.14335482  0.73040383  0.48353784    -0.07100
C1178       C  0.18016660  0.72779895  0.49499233    -0.18200
C1179       C  0.18841935  0.71613031  0.02371066     0.10100
C1180       C  0.16033770  0.71595291  0.04377885    -0.07000
C1181       C  0.12367423  0.72152057  0.03249827    -0.18200
C1182       C  0.11479904  0.72498489  0.50238684     0.10200
S1183       S  0.23653270  0.71221448  0.03553739    -0.33200
S1184       S  0.06678566  0.72654294  0.48928821    -0.36400
H1185       H  0.07142741  0.71599991  0.45982464     0.28200
H1186       H  0.23497669  0.73523743  0.05915645     0.28200
H1187       H  0.20213238  0.73258888  0.48044437     0.18800
H1188       H  0.10161316  0.72078533  0.04745413     0.18800
C1189       C  0.13875947  0.73434141  0.23337884    -0.07100
C1190       C  0.16562605  0.75871860  0.24214599    -0.18200
C1191       C  0.17434287  0.76672635  0.27231781     0.10100
C1192       C  0.15655808  0.74937978  0.29477733    -0.07000
C1193       C  0.12892505  0.72573718  0.28582208    -0.18200
C1194       C  0.11922550  0.71874015  0.25576064     0.10200
S1195       S  0.20782163  0.79954167  0.28022605    -0.33200
S1196       S  0.08114603  0.69015829  0.24800953    -0.33200
H1197       H  0.06461840  0.70985918  0.22455638     0.28200
H1198       H  0.18574210  0.81671837  0.29950850     0.28200
H1199       H  0.18040954  0.77156875  0.22539257     0.18800
H1200       H  0.11416236  0.71243041  0.30239153     0.18800
C1201       C  0.22660859  0.94724316  0.35624050    -0.07100
C1202       C  0.20852912  0.94567378  0.38282485    -0.18200
C1203       C  0.18435141  0.91923319  0.38835981     0.10100
C1204       C  0.17880405  0.89302961  0.36712184    -0.07000
C1205       C  0.19372141  0.89707119  0.33905427    -0.18200
C1206       C  0.21747261  0.92371118  0.33348185     0.10200
S1207       S  0.16447051  0.91911608  0.42402971    -0.33200
S1208       S  0.23684732  0.92513553  0.29761497    -0.33200
H1209       H  0.24224285  0.96006016  0.29715431     0.28200
H1210       H  0.12926612  0.90978624  0.41158919     0.28200
H1211       H  0.21476414  0.96428911  0.40011310     0.18800
H1212       H  0.18906233  0.87799661  0.32197852     0.18800
C1213       C  0.26208374  0.70075292  0.39035921    -0.07100
C1214       C  0.26948326  0.67859636  0.41439768    -0.18200
C1215       C  0.29462676  0.65244502  0.41232207     0.10100
C1216       C  0.31133047  0.64723972  0.38506761    -0.07000
C1217       C  0.30769388  0.67218704  0.36281606    -0.18200
C1218       C  0.28300566  0.69863366  0.36510558     0.10200
S1219       S  0.30232475  0.62491260  0.44429886    -0.33200
S1220       S  0.27613371  0.72679585  0.33366119    -0.33200
H1221       H  0.23809752  0.72041236  0.33003042     0.28200
H1222       H  0.33571529  0.61198956  0.43561951     0.28200
H1223       H  0.25469298  0.68094308  0.43441788     0.18800
H1224       H  0.32033917  0.66885260  0.34185970     0.18800
C1225       C  0.95543523  0.69483952  0.11323550    -0.07100
C1226       C  0.97617591  0.66880979  0.10194297    -0.18200
C1227       C  0.01464203  0.66804944  0.10663018     0.10100
C1228       C  0.03347871  0.69343382  0.12383611    -0.07000
C1229       C  0.01279856  0.71971355  0.13484619    -0.18200
C1230       C  0.97427389  0.72050553  0.13007207     0.10200
S1231       S  0.03802183  0.63486380  0.08870301    -0.33200
S1232       S  0.95074606  0.75375903  0.14772000    -0.33200
H1233       H  0.92187331  0.73313739  0.15632959     0.28200
H1234       H  0.06778755  0.65506401  0.08116453     0.28200
H1235       H  0.96237842  0.64929304  0.08843981     0.18800
H1236       H  0.02660088  0.73916740  0.14840942     0.18800
C1237       C  0.53411821  0.52597290  0.37593185    -0.07100
C1238       C  0.51305232  0.49803148  0.38383664    -0.18200
C1239       C  0.47437505  0.49771266  0.37972758     0.10100
C1240       C  0.45567397  0.52622642  0.36739464    -0.07000
C1241       C  0.47675892  0.55405752  0.35935999    -0.18200
C1242       C  0.51531618  0.55404704  0.36285705     0.10200
S1243       S  0.45430261  0.95672875  0.38769108    -0.33200
S1244       S  0.53855202  0.59017189  0.34872155    -0.33200
H1245       H  0.56560696  0.57130822  0.33568555     0.28200
H1246       H  0.44390854  0.94793724  0.35773539     0.28200
H1247       H  0.52695944  0.47642574  0.39389061     0.18800
H1248       H  0.46313380  0.57580955  0.34921865     0.18800
C1249       C  0.75414770  0.62686443  0.02497650    -0.07100
C1250       C  0.74896468  0.59203952  0.02634603    -0.18200
C1251       C  0.74144460  0.57210064  0.49805288     0.10100
C1252       C  0.73331747  0.58991101  0.47091683    -0.07000
C1253       C  0.73562154  0.62500032  0.47117259    -0.18200
C1254       C  0.74604141  0.64249454  0.49765558     0.10200
S1255       S  0.73382020  0.52870940  0.00433748    -0.33200
S1256       S  0.74805808  0.68764535  0.49557819    -0.33200
H1257       H  0.74634315  0.69597907  0.02304126     0.28200
H1258       H  0.74414257  0.52106767  0.46960293     0.28200
H1259       H  0.75492486  0.57895515  0.04747016     0.18800
H1260       H  0.72784319  0.63897482  0.45081875     0.18800
C1261       C  0.53345763  0.94132728  0.12929328    -0.07100
C1262       C  0.51201143  0.91488773  0.13959879    -0.18200
C1263       C  0.47362703  0.91458027  0.13464104     0.10100
C1264       C  0.45570009  0.94077735  0.11794892    -0.07000
C1265       C  0.47709322  0.96747082  0.10796990    -0.18200
C1266       C  0.51551039  0.96791530  0.11317769     0.10200
S1267       S  0.44923990  0.88092042  0.15170012    -0.33200
S1268       S  0.53998236  0.00212056  0.09707284    -0.33200
H1269       H  0.56786865  0.98174979  0.08709315     0.28200
H1270       H  0.42050083  0.90130879  0.16023488     0.28200
H1271       H  0.52518271  0.89468590  0.15256590     0.18800
H1272       H  0.46394417  0.98763082  0.09494926     0.18800
C1273       C  0.67872804  0.82547195  0.10311687    -0.07100
C1274       C  0.67823363  0.79753435  0.12219080    -0.18200
C1275       C  0.70142195  0.77022571  0.11849269     0.10100
C1276       C  0.72566375  0.77069420  0.09517684    -0.07000
C1277       C  0.72245071  0.79641193  0.07375770    -0.18200
C1278       C  0.69832139  0.82312671  0.07697360     0.10200
S1279       S  0.70317087  0.73814765  0.14701602    -0.33200
S1280       S  0.69529719  0.85480771  0.04809285    -0.33200
H1281       H  0.66046909  0.86592618  0.05515832     0.28200
H1282       H  0.69643845  0.71194947  0.12633420     0.28200
H1283       H  0.66304411  0.79856871  0.14207293     0.18800
H1284       H  0.73971142  0.79630796  0.05505890     0.18800
C1285       C  0.75621808  0.52484466  0.13835775    -0.07100
C1286       C  0.76064597  0.54903571  0.16089446    -0.18200
C1287       C  0.78426844  0.57672877  0.15813723     0.10100
C1288       C  0.80330969  0.58082443  0.13163744    -0.07000
C1289       C  0.80089127  0.55491341  0.11032376    -0.18200
C1290       C  0.77739887  0.52737926  0.11328017     0.10200
S1291       S  0.78909168  0.60652264  0.18864099    -0.33200
S1292       S  0.77337742  0.99714752  0.08376252    -0.33200
H1293       H  0.73515926  0.00197746  0.08001320     0.28200
H1294       H  0.76413489  0.59131185  0.20709732     0.28200
H1295       H  0.74496687  0.54644368  0.18039038     0.18800
H1296       H  0.81486019  0.55738151  0.08988733     0.18800
C1297       C  0.63621325  0.98681164  0.48663326    -0.07100
C1298       C  0.63963635  0.51156812  0.00724859    -0.18200
C1299       C  0.65072191  0.00573772  0.03721427     0.10100
C1300       C  0.65845075  0.97276962  0.04722004    -0.07000
C1301       C  0.65432867  0.94616323  0.02697770    -0.18200
C1302       C  0.64031380  0.95317891  0.49652254     0.10200
S1303       S  0.65838126  0.53957700  0.06319155    -0.33200
S1304       S  0.62918756  0.91762016  0.47264008    -0.33200
H1305       H  0.60107167  0.93383925  0.45488123     0.28200
H1306       H  0.65310191  0.56555062  0.04194562     0.28200
H1307       H  0.63639466  0.53729363  0.99976503     0.18800
H1308       H  0.65883165  0.92078409  0.03494468     0.18800
C1309       C  0.64836672  0.97332203  0.23855854    -0.07100
C1310       C  0.65578688  0.94728633  0.25938225    -0.18200
C1311       C  0.66738997  0.95401590  0.28934330     0.10100
C1312       C  0.66737773  0.48687731  0.29846537    -0.07000
C1313       C  0.66628019  0.51270997  0.27720410    -0.18200
C1314       C  0.65284390  0.00698910  0.24851135     0.10200
S1315       S  0.67688631  0.91876988  0.31409134    -0.33200
S1316       S  0.65131502  0.54271401  0.22267206    -0.33200
H1317       H  0.61065569  0.02758923  0.20967931     0.28200
H1318       H  0.70366021  0.93524121  0.33317096     0.28200
H1319       H  0.65367951  0.92140537  0.25212195     0.18800
H1320       H  0.67200211  0.53825742  0.28446852     0.18800
C1321       C  0.95613639  0.77764922  0.36455848    -0.07100
C1322       C  0.97932402  0.80011927  0.35056413    -0.18200
C1323       C  0.01760589  0.79864181  0.35575706     0.10100
C1324       C  0.03357466  0.77446698  0.37589371    -0.07000
C1325       C  0.01048073  0.75178659  0.38974102    -0.18200
C1326       C  0.97209419  0.75344887  0.38471036     0.10200
S1327       S  0.04448692  0.82754807  0.33508489    -0.33200
S1328       S  0.94510503  0.72562354  0.40630579    -0.33200
H1329       H  0.91772591  0.74930191  0.41097843     0.28200
H1330       H  0.07333777  0.80507704  0.33134963     0.28200
H1331       H  0.96756308  0.81850250  0.33475683     0.18800
H1332       H  0.02233694  0.73365128  0.40574873     0.18800
C1333       C  0.73546126  0.87455553  0.21871800    -0.07100
C1334       C  0.75197361  0.89645132  0.24022841    -0.18200
C1335       C  0.76118418  0.88557814  0.26971619     0.10100
C1336       C  0.75386495  0.85199097  0.27808162    -0.07000
C1337       C  0.73664797  0.83037360  0.25671239    -0.18200
C1338       C  0.72798451  0.84112858  0.22719361     0.10200
S1339       S  0.78149572  0.91597826  0.29589723    -0.33200
S1340       S  0.70801640  0.81077532  0.20092818    -0.33200
H1341       H  0.72204481  0.82560235  0.17551045     0.28200
H1342       H  0.76965985  0.90040344  0.32181897     0.28200
H1343       H  0.75601579  0.92254678  0.23446367     0.18800
H1344       H  0.73222960  0.80431534  0.26244566     0.18800
C1345       C  0.82956214  0.73430321  0.19246336    -0.07100
C1346       C  0.82357512  0.76767762  0.20018820    -0.18200
C1347       C  0.83337522  0.77939581  0.22915516     0.10100
C1348       C  0.84806819  0.75683393  0.25144575    -0.07000
C1349       C  0.85501176  0.72362683  0.24318354    -0.18200
C1350       C  0.84692821  0.71245494  0.21383050     0.10200
S1351       S  0.82545162  0.82300200  0.23610825    -0.33200
S1352       S  0.86003372  0.67033071  0.20503072    -0.33200
H1353       H  0.86743274  0.67657797  0.17508702     0.28200
H1354       H  0.86235891  0.82943561  0.24605591     0.28200
H1355       H  0.81179698  0.78491368  0.18330639     0.18800
H1356       H  0.86692492  0.70615503  0.25978443     0.18800
C1357       C  0.82893633  0.74327252  0.44272716    -0.07100
C1358       C  0.83918838  0.76908633  0.46283049    -0.18200
C1359       C  0.84788760  0.76389735  0.99290491     0.10100
C1360       C  0.85161391  0.73039917  0.00313614    -0.07000
C1361       C  0.84339601  0.70243788  0.48206337    -0.18200
C1362       C  0.83132016  0.70956881  0.45238671     0.10200
S1363       S  0.85894437  0.79965115  0.01655687    -0.33200
S1364       S  0.81717126  0.67470808  0.42847385    -0.33200
H1365       H  0.78924395  0.69202665  0.41146664     0.28200
H1366       H  0.88672305  0.78345713  0.03470661     0.28200
H1367       H  0.83881673  0.79489401  0.45509101     0.18800
H1368       H  0.84335112  0.67659739  0.48967359     0.18800
C1369       C  0.81180508  0.89287514  0.39657891    -0.07100
C1370       C  0.78643899  0.89134179  0.41891246    -0.18200
C1371       C  0.76202897  0.91770581  0.42282922     0.10100
C1372       C  0.76395789  0.94662280  0.40493106    -0.07000
C1373       C  0.79360504  0.95057583  0.38684091    -0.18200
C1374       C  0.81790791  0.92415818  0.38285199     0.10200
S1375       S  0.72726866  0.91362477  0.44936111    -0.33200
S1376       S  0.85312856  0.93062416  0.35728187    -0.33200
H1377       H  0.87930081  0.91113999  0.37415986     0.28200
H1378       H  0.73899030  0.88256365  0.46148560     0.28200
H1379       H  0.78258496  0.86785381  0.43052996     0.18800
H1380       H  0.79617923  0.97340244  0.37391885     0.18800
C1381       C  0.73022177  0.69523498  0.34599469    -0.07100
C1382       C  0.70542930  0.69648104  0.36865133    -0.18200
C1383       C  0.68336337  0.66883381  0.37526903     0.10100
C1384       C  0.68623874  0.63857043  0.35918206    -0.07000
C1385       C  0.70814430  0.63889360  0.33433471    -0.18200
C1386       C  0.73004315  0.66656769  0.32771377     0.10200
S1387       S  0.65417168  0.67347283  0.40569898    -0.33200
S1388       S  0.75793476  0.66331065  0.29621457    -0.33200
H1389       H  0.75757124  0.69775222  0.28932227     0.28200
H1390       H  0.62386554  0.65745526  0.39026585     0.28200
H1391       H  0.70473345  0.71859340  0.38261798     0.18800
H1392       H  0.71007391  0.61660955  0.32077683     0.18800
Fe1393     Fe  0.84292354  0.73905309  0.84727730     1.65800
Fe1394     Fe  0.85214137  0.82232209  0.82996956     1.73200
Fe1395     Fe  0.77650410  0.79439609  0.86226690     1.54400
O1396       O  0.75015576  0.75061713  0.85104008    -0.82600
O1397       O  0.84728348  0.85489931  0.86579605    -0.80900
O1398       O  0.79258751  0.71415942  0.84100012    -0.85100
O1399       O  0.83982809  0.73686521  0.89265606    -0.80000
O1400       O  0.75654842  0.81468078  0.82098593    -0.81800
O1401       O  0.90211989  0.80802901  0.84978168    -0.84500
C1402       C  0.82070135  0.75194682  0.91103049     0.96300
C1403       C  0.75954417  0.72138820  0.84489210     1.03700
O1404       O  0.82402329  0.78513547  0.84676002    -1.13500
O1405       O  0.85819997  0.79411077  0.79155670    -0.75900
O1406       O  0.84534925  0.74050541  0.80176248    -0.79400
O1407       O  0.79627382  0.77399541  0.90343939    -0.80100
C1408       C  0.85134791  0.76397672  0.78337608     0.95200
O1409       O  0.89786694  0.75294770  0.85473218    -0.78000
O1410       O  0.80636670  0.84245489  0.80775937    -0.83200
C1411       C  0.81840709  0.86055725  0.87904489     0.97800
C1412       C  0.77254357  0.83501744  0.80396106     1.03700
O1413       O  0.79153905  0.84047580  0.87752697    -0.78900
C1414       C  0.91636395  0.77997023  0.85637557     1.02000
Fe1415     Fe  0.64544528  0.98029534  0.64042295     1.65800
Fe1416     Fe  0.63666570  0.90072773  0.66365479     1.73200
Fe1417     Fe  0.71281922  0.92531188  0.62949434     1.54400
O1418       O  0.69459606  0.94812180  0.58822964    -0.82600
O1419       O  0.68035228  0.88682433  0.69144787    -0.80900
O1420       O  0.64190701  0.97561418  0.59532576    -0.85100
O1421       O  0.69502414  0.00562120  0.63781418    -0.80000
O1422       O  0.69640582  0.88055790  0.61149335    -0.81800
O1423       O  0.62497596  0.93544310  0.69722985    -0.84500
C1424       C  0.72865719  0.99807193  0.64147448     0.96300
C1425       C  0.66589641  0.96475586  0.57864812     1.03700
O1426       O  0.66523858  0.93497578  0.64417658    -1.13500
O1427       O  0.58922698  0.91093044  0.63722645    -0.75900
O1428       O  0.59029090  0.96598718  0.64128924    -0.79400
O1429       O  0.73898014  0.96821538  0.64506190    -0.80100
C1430       C  0.57295791  0.93882574  0.63544379     0.95200
O1431       O  0.65137474  0.98399704  0.68566350    -0.78000
O1432       O  0.64801208  0.86181532  0.63408311    -0.83200
C1433       C  0.71493929  0.88852667  0.69147060     0.97800
C1434       C  0.67319837  0.85790059  0.61609477     1.03700
O1435       O  0.73178855  0.90192821  0.67024322    -0.78900
C1436       C  0.63970997  0.96382307  0.70477902     1.02000
Fe1437     Fe  0.64856960  0.48172744  0.89139134     1.65800
Fe1438     Fe  0.63837732  0.55926514  0.91759896     1.73200
Fe1439     Fe  0.71373591  0.54011890  0.88234630     1.54400
O1440       O  0.74016207  0.00002828  0.90076087    -0.82600
O1441       O  0.65716918  0.60140985  0.89389772    -0.80900
O1442       O  0.69918001  0.95870053  0.89317835    -0.85100
O1443       O  0.64927815  0.48581559  0.84618156    -0.80000
O1444       O  0.72841390  0.56911364  0.92152523    -0.81800
O1445       O  0.59391086  0.55296586  0.88695501    -0.84500
C1446       C  0.67494370  0.49624072  0.83088276     0.96300
C1447       C  0.73204580  0.96922236  0.89917908     1.03700
O1448       O  0.66712608  0.52704117  0.89690779    -1.13500
O1449       O  0.61818458  0.52245517  0.94569241    -0.75900
O1450       O  0.64840402  0.97495768  0.93634078    -0.79400
O1451       O  0.70269271  0.51310771  0.84208022    -0.80100
C1452       C  0.63305841  0.49486101  0.95426945     0.95200
O1453       O  0.59320645  0.49727026  0.88747206    -0.78000
O1454       O  0.68021951  0.56593501  0.94958327    -0.83200
C1455       C  0.67629093  0.60469470  0.87128165     0.97800
C1456       C  0.71334180  0.57353405  0.94626577     1.03700
O1457       O  0.69010298  0.57949906  0.85971592    -0.78900
C1458       C  0.57684535  0.52530056  0.88280405     1.02000
Fe1459     Fe  0.84261750  0.73559137  0.59745372     1.65800
Fe1460     Fe  0.85264992  0.65703203  0.57372842     1.73200
Fe1461     Fe  0.78121872  0.67618848  0.61328971     1.54400
O1462       O  0.79545037  0.70506405  0.65188533    -0.82600
O1463       O  0.80879807  0.64904645  0.54420144    -0.80900
O1464       O  0.84626904  0.73425516  0.64281908    -0.85100
O1465       O  0.78961719  0.75609282  0.59718779    -0.80000
O1466       O  0.80940126  0.63892940  0.63544528    -0.81800
O1467       O  0.87055847  0.69274027  0.54363229    -0.84500
C1468       C  0.75667402  0.74480155  0.59466213     0.96300
C1469       C  0.82323505  0.72343450  0.66036666     1.03700
O1470       O  0.82503424  0.68980552  0.59482771    -1.13500
O1471       O  0.89807833  0.66502380  0.60257827    -0.75900
O1472       O  0.89830986  0.72081502  0.59910917    -0.79400
O1473       O  0.74947617  0.71376793  0.59404063    -0.80100
C1474       C  0.91481605  0.69303238  0.60486729     0.95200
O1475       O  0.83857493  0.73841888  0.55204839    -0.78000
O1476       O  0.83607024  0.61535808  0.59877016    -0.83200
C1477       C  0.77646273  0.64093139  0.54981051     0.97800
C1478       C  0.81931391  0.61300739  0.62269564     1.03700
O1479       O  0.76378407  0.64544673  0.57559148    -0.78900
C1480       C  0.85469593  0.71967092  0.53458514     1.02000
Fe1481     Fe  0.14495372  0.73365761  0.88725054     1.65800
Fe1482     Fe  0.13658817  0.80783428  0.91921541     1.73200
Fe1483     Fe  0.20672562  0.79407657  0.87683835     1.54400
O1484       O  0.23849233  0.75378841  0.89115093    -0.82600
O1485       O  0.15340794  0.85295090  0.89890377    -0.80900
O1486       O  0.19708432  0.71305641  0.88233073    -0.85100
O1487       O  0.13800971  0.74361819  0.84313912    -0.80000
O1488       O  0.22495677  0.82016023  0.91731845    -0.81800
O1489       O  0.09083660  0.80369842  0.88984218    -0.84500
C1490       C  0.16099664  0.75521787  0.82592443     0.96300
C1491       C  0.23032943  0.72322620  0.88651636     1.03700
O1492       O  0.16354603  0.77833090  0.89467993    -1.13500
O1493       O  0.11951984  0.76747661  0.94516116    -0.75900
O1494       O  0.15230979  0.72408732  0.93167914    -0.79400
O1495       O  0.19073216  0.77012128  0.83581661    -0.80100
C1496       C  0.13727635  0.74057730  0.95141463     0.95200
O1497       O  0.08979801  0.74792497  0.89013877    -0.78000
O1498       O  0.18073125  0.81181925  0.94867771    -0.83200
C1499       C  0.16938716  0.85836645  0.87496820     0.97800
C1500       C  0.21246435  0.82219385  0.94349132     1.03700
O1501       O  0.17824549  0.83406031  0.85932185    -0.78900
C1502       C  0.07376090  0.77607186  0.88565023     1.02000
Fe1503     Fe  0.34180505  0.98156420  0.60773058     1.65800
Fe1504     Fe  0.35096153  0.90633698  0.57730637     1.73200
Fe1505     Fe  0.27794929  0.92243879  0.61667275     1.54400
O1506       O  0.29359632  0.94650658  0.65799554    -0.82600
O1507       O  0.30748709  0.89902921  0.54747311    -0.80900
O1508       O  0.34765905  0.97206707  0.65210031    -0.85100
O1509       O  0.29018051  0.00292658  0.61285738    -0.80000
O1510       O  0.30194847  0.88079087  0.63530158    -0.81800
O1511       O  0.36599545  0.94600781  0.54961588    -0.84500
C1512       C  0.25700576  0.99349424  0.60703292     0.96300
C1513       C  0.32299945  0.96169842  0.66847090     1.03700
O1514       O  0.32314721  0.93650504  0.60065058    -1.13500
O1515       O  0.39698818  0.91245017  0.60625470    -0.75900
O1516       O  0.39723626  0.96794367  0.60514239    -0.79400
O1517       O  0.24883714  0.96347512  0.60038007    -0.80100
C1518       C  0.41387730  0.94017449  0.60997021     0.95200
O1519       O  0.33442824  0.99035955  0.56298283    -0.78000
O1520       O  0.33602060  0.86241215  0.60010968    -0.83200
C1521       C  0.27440392  0.89176061  0.55133488     0.97800
C1522       C  0.31672577  0.85699324  0.62229423     1.03700
O1523       O  0.26003274  0.89659007  0.57636776    -0.78900
C1524       C  0.34768900  0.97260300  0.54311203     1.02000
Fe1525     Fe  0.14600395  0.73049381  0.63774626     1.65800
Fe1526     Fe  0.13352013  0.65456544  0.66696300     1.73200
Fe1527     Fe  0.20839954  0.67017705  0.62904147     1.54400
O1528       O  0.19513670  0.69417901  0.58772676    -0.82600
O1529       O  0.17617811  0.64760088  0.69799200    -0.80900
O1530       O  0.14384284  0.72353586  0.59305037    -0.85100
O1531       O  0.19844001  0.75161456  0.63742004    -0.80000
O1532       O  0.18371735  0.62862931  0.60999910    -0.81800
O1533       O  0.11649027  0.69317160  0.69403767    -0.84500
C1534       C  0.23125578  0.74134538  0.64238474     0.96300
C1535       C  0.16728539  0.71091795  0.57697508     1.03700
O1536       O  0.16307992  0.68498464  0.64448272    -1.13500
O1537       O  0.08854603  0.66105179  0.63668296    -0.75900
O1538       O  0.09040709  0.71675181  0.63656528    -0.79400
O1539       O  0.23893906  0.71060837  0.64519332    -0.80100
C1540       C  0.07294694  0.68920042  0.63213079     0.95200
O1541       O  0.14860750  0.73806629  0.68246177    -0.78000
O1542       O  0.14930803  0.61069436  0.64546766    -0.83200
C1543       C  0.20931617  0.64019688  0.69461311     0.97800
C1544       C  0.16892422  0.60506820  0.62365746     1.03700
O1545       O  0.22404445  0.64447719  0.66965295    -0.78900
C1546       C  0.13239318  0.72082477  0.70129692     1.02000
Fe1547     Fe  0.34286018  0.48447135  0.85725334     1.65800
Fe1548     Fe  0.35401509  0.56015348  0.82673430     1.73200
Fe1549     Fe  0.27977977  0.54398238  0.86549551     1.54400
O1550       O  0.24973998  0.00428277  0.85244668    -0.82600
O1551       O  0.33988829  0.60408550  0.84962449    -0.80900
O1552       O  0.29191569  0.96514836  0.86070196    -0.85100
O1553       O  0.34714862  0.49323961  0.90184722    -0.80000
O1554       O  0.26257413  0.56914332  0.82498638    -0.81800
O1555       O  0.40061307  0.55327305  0.85532881    -0.84500
C1556       C  0.32398506  0.50612659  0.91807112     0.96300
C1557       C  0.25866687  0.97402500  0.85631032     1.03700
O1558       O  0.32522210  0.52979587  0.84992340    -1.13500
O1559       O  0.36820112  0.52101214  0.79854284    -0.75900
O1560       O  0.33681859  0.98112364  0.81205093    -0.79400
O1561       O  0.29476452  0.52091393  0.90715477    -0.80100
C1562       C  0.35232406  0.49283722  0.79265811     0.95200
O1563       O  0.39851284  0.49787638  0.85576606    -0.78000
O1564       O  0.31064586  0.56821935  0.79682582    -0.83200
C1565       C  0.31957322  0.60962988  0.87112686     0.97800
C1566       C  0.27731426  0.57456904  0.80023099     1.03700
O1567       O  0.30325691  0.58616033  0.88369671    -0.78900
C1568       C  0.41663072  0.52520681  0.85894225     1.02000
C1569       C  0.25669752  0.58982237  0.77373052    -0.07100
C1570       C  0.26714888  0.58083195  0.74508751    -0.18200
C1571       C  0.25459845  0.59829321  0.71912765     0.10100
C1572       C  0.22975343  0.62494848  0.72124457    -0.07000
C1573       C  0.21935722  0.63400674  0.74990013    -0.18200
C1574       C  0.23244725  0.61691142  0.77594246     0.10200
S1575       S  0.27064115  0.58470325  0.68408589    -0.33200
S1576       S  0.21903648  0.63223687  0.81131217    -0.33200
H1577       H  0.20350415  0.60137200  0.81922119     0.28200
H1578       H  0.28546574  0.61633728  0.67760057     0.28200
H1579       H  0.28625249  0.56042386  0.74294577     0.18800
H1580       H  0.20041147  0.65452420  0.75205568     0.18800
C1581       C  0.30659196  0.82242373  0.63211028    -0.07100
C1582       C  0.28753226  0.81983857  0.65841460    -0.18200
C1583       C  0.26463540  0.79252898  0.66357955     0.10100
C1584       C  0.26156144  0.76613211  0.64280538    -0.07000
C1585       C  0.28448740  0.76611004  0.61894979    -0.18200
C1586       C  0.30674276  0.79404464  0.61308912     0.10200
S1587       S  0.23834710  0.79386863  0.69609787    -0.33200
S1588       S  0.33170505  0.79401673  0.57965978    -0.33200
H1589       H  0.32211003  0.76132110  0.57018020     0.28200
H1590       H  0.23406977  0.75897277  0.69896928     0.28200
H1591       H  0.28786653  0.84059881  0.67399785     0.18800
H1592       H  0.28258244  0.74527342  0.60346560     0.18800
C1593       C  0.22851808  0.51619914  0.60976115    -0.07100
C1594       C  0.21534190  0.53512299  0.58477998    -0.18200
C1595       C  0.19102958  0.56181472  0.58784383     0.10100
C1596       C  0.18029046  0.57046762  0.61665217    -0.07000
C1597       C  0.19082441  0.54940565  0.64102915    -0.18200
C1598       C  0.21459714  0.52244181  0.63783893     0.10200
S1599       S  0.17587941  0.58484153  0.55439602    -0.33200
S1600       S  0.22850340  0.49841436  0.67092494    -0.33200
H1601       H  0.22782581  0.46755928  0.65582033     0.28200
H1602       H  0.14342113  0.59681358  0.56560936     0.28200
H1603       H  0.22505953  0.52992555  0.56298872     0.18800
H1604       H  0.18314412  0.55561762  0.66329287     0.18800
C1605       C  0.32904748  0.97006659  0.70052494    -0.07100
C1606       C  0.34434341  0.00171770  0.70748570    -0.18200
C1607       C  0.37404745  0.48839513  0.74032810     0.10100
C1608       C  0.34665394  0.98935353  0.76079124    -0.07000
C1609       C  0.33119337  0.95753468  0.75370205    -0.18200
C1610       C  0.32281683  0.94754244  0.72395639     0.10200
S1611       S  0.41730235  0.50945192  0.74981692    -0.33200
S1612       S  0.30570249  0.90553407  0.71742670    -0.33200
H1613       H  0.32669266  0.89970646  0.69285811     0.28200
H1614       H  0.42414919  0.49292470  0.77755902     0.28200
H1615       H  0.38522481  0.48764893  0.69446584     0.18800
H1616       H  0.32574640  0.94001733  0.77145273     0.18800
C1617       C  0.33105914  0.50210528  0.95087512    -0.07100
C1618       C  0.30107369  0.49998479  0.96863345    -0.18200
C1619       C  0.30529734  0.98996067  0.49878954     0.10100
C1620       C  0.34115192  0.98305258  0.51171466    -0.07000
C1621       C  0.37323323  0.98953830  0.99459439    -0.18200
C1622       C  0.36827003  0.00060187  0.96490974     0.10200
S1623       S  0.26479832  0.48676290  0.51975369    -0.33200
S1624       S  0.40922392  0.01019976  0.94618846    -0.33200
H1625       H  0.39356423  0.03699305  0.92919885     0.28200
H1626       H  0.27689619  0.96074249  0.53847087     0.28200
H1627       H  0.27342900  0.50402650  0.95864152     0.18800
H1628       H  0.40082863  0.98554514  0.00471960     0.18800
C1629       C  0.23309859  0.83837936  0.96961710    -0.07100
C1630       C  0.22635813  0.82612824  0.99840522    -0.18200
C1631       C  0.23254964  0.84663337  0.52717881     0.10100
C1632       C  0.25398247  0.87596999  0.52499970    -0.07000
C1633       C  0.26356661  0.88662325  0.99385006    -0.18200
C1634       C  0.25196313  0.86921095  0.96755868     0.10200
S1635       S  0.22044297  0.82930662  0.56243960    -0.33200
S1636       S  0.25998586  0.88870505  0.93222941    -0.33200
H1637       H  0.27784254  0.86057365  0.92149560     0.28200
H1638       H  0.25583460  0.83296681  0.57672511     0.28200
H1639       H  0.21129791  0.80280082  0.00050421     0.18800
H1640       H  0.27901390  0.90949496  0.49413667     0.18800
C1641       C  0.14304709  0.72923418  0.98252319    -0.07100
C1642       C  0.17931405  0.72207241  0.99330437    -0.18200
C1643       C  0.18913658  0.72153822  0.52536693     0.10100
C1644       C  0.16060269  0.71621341  0.54447054    -0.07000
C1645       C  0.12370489  0.71778049  0.53258657    -0.18200
C1646       C  0.11477276  0.72821264  0.00217422     0.10200
S1647       S  0.23701480  0.72383488  0.53861642    -0.33200
S1648       S  0.06703243  0.73469788  0.98992838    -0.36400
H1649       H  0.06926823  0.72195097  0.96081682     0.28200
H1650       H  0.23066761  0.74339068  0.56381474     0.28200
H1651       H  0.20119863  0.72327167  0.97817819     0.18800
H1652       H  0.10151035  0.71349227  0.54699310     0.18800
C1653       C  0.13435505  0.73274211  0.73268042    -0.07100
C1654       C  0.15928176  0.75892848  0.74077457    -0.18200
C1655       C  0.16802988  0.76766042  0.77066723     0.10100
C1656       C  0.15218121  0.74934014  0.79349810    -0.07000
C1657       C  0.12576201  0.72434743  0.78527933    -0.18200
C1658       C  0.11599130  0.71653206  0.75540378     0.10200
S1659       S  0.19894931  0.80263846  0.77776838    -0.33200
S1660       S  0.07949119  0.68618081  0.74827825    -0.33200
H1661       H  0.06216562  0.70437469  0.72416561     0.28200
H1662       H  0.17679658  0.81775014  0.79825842     0.28200
H1663       H  0.17268458  0.77261649  0.72369499     0.18800
H1664       H  0.11227964  0.71049463  0.80228371     0.18800
C1665       C  0.22956568  0.94813327  0.85670619    -0.07100
C1666       C  0.20549933  0.94852344  0.87981807    -0.18200
C1667       C  0.18218258  0.92112962  0.88478268     0.10100
C1668       C  0.18305129  0.89234310  0.86632428    -0.07000
C1669       C  0.20464775  0.89393635  0.84135723    -0.18200
C1670       C  0.22798284  0.92105511  0.83663258     0.10200
S1671       S  0.15390305  0.92397233  0.91597097    -0.33200
S1672       S  0.25655440  0.91876770  0.80545695    -0.33200
H1673       H  0.25931628  0.95355364  0.80084840     0.28200
H1674       H  0.12294578  0.90928087  0.90029481     0.28200
H1675       H  0.20627572  0.96957745  0.89512240     0.18800
H1676       H  0.20540914  0.87286355  0.82620558     0.18800
C1677       C  0.26033620  0.69858123  0.88488248    -0.07100
C1678       C  0.26829477  0.67677604  0.90906104    -0.18200
C1679       C  0.29315664  0.65036988  0.90700675     0.10100
C1680       C  0.30926103  0.64429714  0.87955118    -0.07000
C1681       C  0.30430892  0.66841312  0.85658933    -0.18200
C1682       C  0.28001114  0.69529657  0.85896681     0.10200
S1683       S  0.30188337  0.62433911  0.93986871    -0.33200
S1684       S  0.27269562  0.72293640  0.82716932    -0.33200
H1685       H  0.23420608  0.71995231  0.82603153     0.28200
H1686       H  0.33652213  0.61336127  0.93217726     0.28200
H1687       H  0.25440515  0.67986124  0.92946328     0.18800
H1688       H  0.31627596  0.66448118  0.83543163     0.18800
C1689       C  0.95518288  0.69273044  0.61240496    -0.07100
C1690       C  0.97581248  0.66730929  0.60003198    -0.18200
C1691       C  0.01419372  0.66618433  0.60495479     0.10100
C1692       C  0.03282370  0.69051599  0.62344916    -0.07000
C1693       C  0.01223366  0.71619674  0.63550279    -0.18200
C1694       C  0.97385179  0.71739390  0.63046757     0.10200
S1695       S  0.03776116  0.63412677  0.58572078    -0.33200
S1696       S  0.95024814  0.74975408  0.64924381    -0.33200
H1697       H  0.92103124  0.72883776  0.65664276     0.28200
H1698       H  0.06799950  0.65456152  0.57975408     0.28200
H1699       H  0.96199091  0.64862209  0.58557491     0.18800
H1700       H  0.02601279  0.73486124  0.65001268     0.18800
C1701       C  0.53621351  0.52534121  0.87450152    -0.07100
C1702       C  0.51553320  0.49683955  0.88150050    -0.18200
C1703       C  0.47704966  0.49588847  0.87678436     0.10100
C1704       C  0.45766328  0.52443374  0.86522710    -0.07000
C1705       C  0.47837325  0.55295341  0.85819823    -0.18200
C1706       C  0.51698067  0.55352445  0.86203535     0.10200
S1707       S  0.45208240  0.96054703  0.88878467    -0.33200
S1708       S  0.53971740  0.59060556  0.84924781    -0.33200
H1709       H  0.56721247  0.57276888  0.83575747     0.28200
H1710       H  0.44258933  0.95131001  0.85879442     0.28200
H1711       H  0.52938563  0.47501083  0.89126618     0.18800
H1712       H  0.46446923  0.57486201  0.84866280     0.18800
C1713       C  0.75454485  0.62472804  0.52472900    -0.07100
C1714       C  0.75195450  0.58962231  0.52457019    -0.18200
C1715       C  0.73858164  0.57351185  0.00037918     0.10100
C1716       C  0.73313173  0.59002376  0.97228820    -0.07000
C1717       C  0.73785938  0.62487183  0.97104773    -0.18200
C1718       C  0.74800420  0.64338835  0.99698917     0.10200
S1719       S  0.73957486  0.52694798  0.50010041    -0.33200
S1720       S  0.75225490  0.68824992  0.99310668    -0.33200
H1721       H  0.74316087  0.69345110  0.52604366     0.28200
H1722       H  0.73983021  0.52067816  0.97450000     0.28200
H1723       H  0.75991841  0.57566481  0.54489914     0.18800
H1724       H  0.73206124  0.63797178  0.94989772     0.18800
C1725       C  0.53241485  0.93949555  0.62799198    -0.07100
C1726       C  0.51078972  0.91352458  0.63890793    -0.18200
C1727       C  0.47227020  0.91389540  0.63477400     0.10100
C1728       C  0.45432814  0.94020149  0.61817998    -0.07000
C1729       C  0.47595904  0.96629160  0.60742233    -0.18200
C1730       C  0.51447681  0.96614375  0.61192241     0.10200
S1731       S  0.44776260  0.88110549  0.65292586    -0.33200
S1732       S  0.53907029  0.99984223  0.59516662    -0.33200
H1733       H  0.56678118  0.97911640  0.58540072     0.28200
H1734       H  0.41971189  0.90220022  0.66162001     0.28200
H1735       H  0.52394102  0.89332048  0.65187731     0.18800
H1736       H  0.46286415  0.98649467  0.59442922     0.18800
C1737       C  0.68041714  0.82469411  0.60271486    -0.07100
C1738       C  0.67843897  0.79624943  0.62109850    -0.18200
C1739       C  0.70067604  0.76829060  0.61709829     0.10100
C1740       C  0.72578056  0.76876553  0.59438780    -0.07000
C1741       C  0.72423048  0.79523236  0.57371049    -0.18200
C1742       C  0.70098525  0.82254403  0.57705721     0.10200
S1743       S  0.69998326  0.73513955  0.64452223    -0.33200
S1744       S  0.70054393  0.85509313  0.54895472    -0.33200
H1745       H  0.66557427  0.86683807  0.55489841     0.28200
H1746       H  0.69350187  0.70988659  0.62286469     0.28200
H1747       H  0.66261637  0.79712791  0.64064613     0.18800
H1748       H  0.74226917  0.79525634  0.55551358     0.18800
C1749       C  0.75903106  0.52407857  0.64062197    -0.07100
C1750       C  0.76165042  0.54940166  0.66210436    -0.18200
C1751       C  0.78482891  0.57721323  0.65903619     0.10100
C1752       C  0.80548217  0.58006625  0.63324440    -0.07000
C1753       C  0.80516897  0.55287367  0.61333177    -0.18200
C1754       C  0.78182981  0.52534481  0.61651201     0.10200
S1755       S  0.78601248  0.60899794  0.68787302    -0.33200
S1756       S  0.77617405  0.99671531  0.58566094    -0.33200
H1757       H  0.73784716  0.99984999  0.58062629     0.28200
H1758       H  0.76194434  0.59330264  0.70680214     0.28200
H1759       H  0.74448664  0.54777996  0.68080342     0.18800
H1760       H  0.82045184  0.55435627  0.59349681     0.18800
C1761       C  0.63609380  0.98485735  0.98646412    -0.07100
C1762       C  0.64421747  0.51336455  0.50743281    -0.18200
C1763       C  0.65422512  0.00619700  0.53728163     0.10100
C1764       C  0.65935878  0.97269404  0.54674591    -0.07000
C1765       C  0.65241323  0.94656627  0.52634520    -0.18200
C1766       C  0.64246968  0.95167583  0.99690242     0.10200
S1767       S  0.66656509  0.54163417  0.56267233    -0.33200
S1768       S  0.63429645  0.91521776  0.97354689    -0.33200
H1769       H  0.60495251  0.92933875  0.95558547     0.28200
H1770       H  0.66239164  0.56733337  0.54104736     0.28200
H1771       H  0.64213065  0.53903682  0.49957124     0.18800
H1772       H  0.65488427  0.92086245  0.53399152     0.18800
C1773       C  0.64580319  0.97286244  0.73701965    -0.07100
C1774       C  0.64877243  0.94674799  0.75822930    -0.18200
C1775       C  0.65969220  0.95292383  0.78837555     0.10100
C1776       C  0.67119797  0.48828670  0.79870345    -0.07000
C1777       C  0.66531254  0.51457597  0.77811287    -0.18200
C1778       C  0.65398742  0.00615343  0.74686023     0.10200
S1779       S  0.66369558  0.91733643  0.81343154    -0.33200
S1780       S  0.64276220  0.54435065  0.72461228    -0.33200
H1781       H  0.61573396  0.03105167  0.70767757     0.28200
H1782       H  0.69220128  0.93100134  0.83272135     0.28200
H1783       H  0.64374912  0.92104337  0.75118130     0.18800
H1784       H  0.66815319  0.54026094  0.78582438     0.18800
C1785       C  0.95642897  0.77893872  0.86506086    -0.07100
C1786       C  0.97969777  0.80021650  0.84982393    -0.18200
C1787       C  0.01795999  0.79917360  0.85542152     0.10100
C1788       C  0.03376686  0.77660204  0.87710000    -0.07000
C1789       C  0.01058364  0.75542067  0.89248073    -0.18200
C1790       C  0.97222493  0.75677777  0.88714674     0.10200
S1791       S  0.04505136  0.82631382  0.83323184    -0.33200
S1792       S  0.94504978  0.73131671  0.91066240    -0.33200
H1793       H  0.91715447  0.75518409  0.91279230     0.28200
H1794       H  0.07402420  0.80356426  0.83106830     0.28200
H1795       H  0.96803311  0.81720185  0.83271071     0.18800
H1796       H  0.02238102  0.73865314  0.90972191     0.18800
C1797       C  0.73476680  0.87423234  0.71836901    -0.07100
C1798       C  0.74688040  0.89619703  0.74149076    -0.18200
C1799       C  0.75600201  0.88432559  0.77064982     0.10100
C1800       C  0.75307116  0.84967128  0.77701973    -0.07000
C1801       C  0.74029184  0.82781331  0.75404033    -0.18200
C1802       C  0.73146492  0.83967162  0.72486433     0.10200
S1803       S  0.77039479  0.91471832  0.79902815    -0.33200
S1804       S  0.71641756  0.80939653  0.69666462    -0.33200
H1805       H  0.72813182  0.82780122  0.67217877     0.28200
H1806       H  0.75985091  0.89573860  0.82359931     0.28200
H1807       H  0.74751299  0.92292652  0.73716065     0.18800
H1808       H  0.73928619  0.80110235  0.75838753     0.18800
C1809       C  0.82991370  0.73310062  0.69185372    -0.07100
C1810       C  0.82633038  0.76693973  0.69917457    -0.18200
C1811       C  0.83589499  0.77849581  0.72823848     0.10100
C1812       C  0.84813666  0.75538817  0.75101465    -0.07000
C1813       C  0.85261878  0.72162683  0.74314436    -0.18200
C1814       C  0.84462967  0.71052071  0.71378105     0.10200
S1815       S  0.83081957  0.82269580  0.73452482    -0.33200
S1816       S  0.85509852  0.66761295  0.70561861    -0.33200
H1817       H  0.86480726  0.67326858  0.67615795     0.28200
H1818       H  0.86797262  0.82710594  0.74484655     0.28200
H1819       H  0.81652461  0.78461512  0.68192820     0.18800
H1820       H  0.86268075  0.70363365  0.76000832     0.18800
C1821       C  0.82864923  0.74382370  0.94282840    -0.07100
C1822       C  0.83597735  0.77019026  0.96300251    -0.18200
C1823       C  0.85126569  0.76194685  0.49254791     0.10100
C1824       C  0.85224786  0.72828829  0.50256180    -0.07000
C1825       C  0.84554412  0.70408461  0.98261425    -0.18200
C1826       C  0.83359128  0.71037703  0.95275022     0.10200
S1827       S  0.86590642  0.79671087  0.51634795    -0.33200
S1828       S  0.82264632  0.67461235  0.92901545    -0.33200
H1829       H  0.79328530  0.68989656  0.91194949     0.28200
H1830       H  0.89168139  0.77832278  0.53469206     0.28200
H1831       H  0.83355350  0.79592142  0.95516703     0.18800
H1832       H  0.84752581  0.67829249  0.99031355     0.18800
C1833       C  0.81197076  0.89241691  0.89465843    -0.07100
C1834       C  0.78679885  0.89070500  0.91709494    -0.18200
C1835       C  0.76128841  0.91629230  0.92029529     0.10100
C1836       C  0.76244381  0.94495199  0.90200332    -0.07000
C1837       C  0.79186577  0.94927804  0.88373596    -0.18200
C1838       C  0.81692965  0.92341785  0.88015307     0.10200
S1839       S  0.72614192  0.91140544  0.94636789    -0.33200
S1840       S  0.85146667  0.92994049  0.85397383    -0.33200
H1841       H  0.87838699  0.91129255  0.87086938     0.28200
H1842       H  0.73810917  0.88037954  0.95840295     0.28200
H1843       H  0.78377948  0.86735485  0.92914265     0.18800
H1844       H  0.79371720  0.97190765  0.87042365     0.18800
C1845       C  0.73122446  0.69452184  0.84571624    -0.07100
C1846       C  0.70653150  0.69600299  0.86845365    -0.18200
C1847       C  0.68443991  0.66848580  0.87525215     0.10100
C1848       C  0.68727454  0.63815587  0.85931400    -0.07000
C1849       C  0.70874830  0.63836035  0.83419636    -0.18200
C1850       C  0.73066425  0.66592216  0.82737312     0.10200
S1851       S  0.65535493  0.67335312  0.90572674    -0.33200
S1852       S  0.75806394  0.66260632  0.79558084    -0.33200
H1853       H  0.75780179  0.69706797  0.78876698     0.28200
H1854       H  0.62511330  0.65693971  0.89058019     0.28200
H1855       H  0.70595812  0.71815654  0.88235367     0.18800
H1856       H  0.71041818  0.61604377  0.82065564     0.18800
loop_ 
_geom_bond_atom_site_label_1 
_geom_bond_atom_site_label_2 
_geom_bond_distance 
_geom_bond_site_symmetry_2 
_ccdc_geom_bond_type 
Fe1          O17   2.078       .  S
Fe1           O7   2.047       .  S
Fe1          O14   2.049       .  S
Fe1           O6   2.081       .  S
Fe1          O12   1.970       .  S
Fe2           O5   2.089       .  S
Fe2           O9   2.051       .  S
Fe2          O13   2.085       .  S
Fe2          O18   2.044       .  S
Fe2          O12   1.974       .  S
Fe3          O21   2.022       .  S
Fe3           O8   2.090       .  S
Fe3          O15   2.086       .  S
Fe3           O4   2.032       .  S
Fe3          O12   1.953       .  S
O4           C11   1.255       .  A
O5           C19   1.270       .  A
O6           C11   1.266       .  A
O7           C10   1.274       .  A
O8           C20   1.277       .  A
O9           C22   1.263       .  A
C10          O15   1.282       .  A
C10         C429   1.464       .  S
C11         C453   1.485       .  S
O13          C16   1.276       .  A
O14          C16   1.273       .  A
C16         C420   1.486       .  S
O17          C22   1.267       .  A
O18          C20   1.265       .  A
C19          O21   1.259       .  A
C19         C441   1.484       .  S
C20         C408   1.470       .  S
C22         C393   1.486       .  S
Fe23         O39   2.023       .  S
Fe23         O29   2.078       .  S
Fe23         O36   2.089       .  S
Fe23         O28   2.018       .  S
Fe23         O34   1.952       .  S
Fe24         O27   2.019       .  S
Fe24         O31   2.116       .  S
Fe24         O35   2.060       .  S
Fe24         O40   2.109       .  S
Fe24         O34   1.954       .  S
Fe25         O43   2.116       .  S
Fe25         O30   2.027       .  S
Fe25         O37   2.051       .  S
Fe25         O26   2.118       .  S
Fe25         O34   1.943       .  S
O26          C33   1.289       .  A
O27          C41   1.262       .  A
O28          C33   1.271       .  A
O29          C32   1.264       .  A
O30          C42   1.260       .  A
O31          C44   1.285       .  A
C32          O37   1.258       .  A
C32        C1285   1.477       .  S
C33         C372   1.463       .  S
O35          C38   1.265       .  A
O36          C38   1.269       .  A
C38         C333   1.489       .  S
O39          C44   1.266       .  A
O40          C42   1.277       .  A
C41          O43   1.282       .  A
C41         C405   1.469       .  S
C42         C345   1.490       .  S
C44         C381   1.487       .  S
Fe45         O61   2.111       .  S
Fe45         O51   2.029       .  S
Fe45        O986   2.021       .  S
Fe45        O978   2.097       .  S
Fe45         O56   1.937   1_565  S
Fe46         O49   2.119       .  S
Fe46         O53   2.055       .  S
Fe46         O57   2.093       .  S
Fe46         O62   2.025       .  S
Fe46         O56   1.948       .  S
Fe47         O65   2.025       .  S
Fe47         O52   2.136       .  S
Fe47         O59   2.113       .  S
Fe47        O976   2.046       .  S
Fe47         O56   1.932       .  S
O48        Fe975   2.046       .  S
O48          C55   1.263       .  A
O49          C63   1.276       .  A
O50        Fe973   2.095       .  S
O50          C55   1.275       .  A
O51          C54   1.267       .  A
O52          C64   1.285       .  A
O53          C66   1.270       .  A
C54          O59   1.282   1_565  A
C54         C384   1.470       .  S
C55         C444   1.478       .  S
O57          C60   1.276   1_545  A
O58        Fe973   2.026       .  S
O58         C988   1.262       .  A
C60         O986   1.262       .  A
C60        C1297   1.470       .  S
O61          C66   1.280   1_565  A
O62          C64   1.262       .  A
C63          O65   1.258       .  A
C63         C456   1.498       .  S
C64         C324   1.476       .  S
C66         C309   1.500       .  S
Fe67         O83   2.026       .  S
Fe67         O73   2.106       .  S
Fe67         O80   2.115       .  S
Fe67         O72   2.023       .  S
Fe67         O78   1.932       .  S
Fe68         O71   2.021       .  S
Fe68         O75   2.088       .  S
Fe68         O79   2.044       .  S
Fe68         O84   2.107       .  S
Fe68         O78   1.946       .  S
Fe69         O87   2.144       .  S
Fe69         O74   2.025       .  S
Fe69         O81   2.048       .  S
Fe69         O70   2.110       .  S
Fe69         O78   1.927       .  S
O70          C77   1.281       .  A
O71          C85   1.264       .  A
O72          C77   1.265       .  A
O73          C76   1.277       .  A
O74          C86   1.252       .  A
O75          C88   1.273       .  A
C76          O81   1.264       .  A
C76         C348   1.483       .  S
C77         C417   1.464       .  S
O79          C82   1.270       .  A
O80          C82   1.281       .  A
C82         C297   1.485       .  S
O83          C88   1.264       .  A
O84          C86   1.274       .  A
C85          O87   1.288       .  A
C85         C321   1.477       .  S
C86         C360   1.489       .  S
C88         C432   1.467       .  S
Fe89        O105   2.106       .  S
Fe89         O95   2.007       .  S
Fe89        O102   2.021       .  S
Fe89         O94   2.101       .  S
Fe89        O100   1.928       .  S
Fe90         O93   2.116       .  S
Fe90         O97   2.051       .  S
Fe90        O101   2.099       .  S
Fe90        O106   2.009       .  S
Fe90        O100   1.934       .  S
Fe91        O109   2.035       .  S
Fe91         O96   2.143       .  S
Fe91        O103   2.114       .  S
Fe91         O92   2.064       .  S
Fe91        O100   1.921       .  S
O92          C99   1.267       .  A
O93         C107   1.274       .  A
O94          C99   1.274       .  A
O95          C98   1.266       .  A
O96         C108   1.289       .  A
O97         C110   1.269       .  A
C98         O103   1.284       .  A
C98         C264   1.479       .  S
C99         C285   1.483       .  S
O101        C104   1.277       .  A
O102        C104   1.264       .  A
C104        C249   1.459       .  S
O105        C110   1.277       .  A
O106        C108   1.264       .  A
C107        O109   1.260       .  A
C107        C276   1.501       .  S
C108        C237   1.486       .  S
C110        C396   1.481       .  S
Fe111       O127   2.027       .  S
Fe111       O117   2.103       .  S
Fe111       O124   2.112       .  S
Fe111       O116   2.014       .  S
Fe111       O122   1.934       .  S
Fe112       O115   2.010       .  S
Fe112       O119   2.099       .  S
Fe112       O123   2.051       .  S
Fe112       O128   2.111       .  S
Fe112       O122   1.938       .  S
Fe113       O131   2.135       .  S
Fe113       O118   2.031       .  S
Fe113       O125   2.059       .  S
Fe113       O114   2.119       .  S
Fe113       O122   1.924       .  S
O114        C121   1.284       .  A
O115        C129   1.263       .  A
O116        C121   1.268       .  A
O117        C120   1.273       .  A
O118        C130   1.261       .  A
O119        C132   1.278       .  A
C120        O125   1.264       .  A
C120       C1129   1.482       .  S
C121        C213   1.474       .  S
O123        C126   1.267       .  A
O124        C126   1.278       .  A
C126        C336   1.491       .  S
O127        C132   1.265       .  A
O128        C130   1.275       .  A
C129        O131   1.287       .  A
C129        C240   1.484       .  S
C130        C189   1.497       .  S
C132        C228   1.465       .  S
Fe133       O149   2.020       .  S
Fe133       O139   2.085       .  S
Fe133       O146   2.095       .  S
Fe133       O138   2.014       .  S
Fe133       O144   1.939       .  S
Fe134       O137   2.021       .  S
Fe134       O141   2.088       .  S
Fe134       O145   2.060       .  S
Fe134       O150   2.104       .  S
Fe134       O144   1.943       .  S
Fe135       O153   2.123       .  S
Fe135       O140   2.040       .  S
Fe135       O147   2.056       .  S
Fe135       O136   2.102       .  S
Fe135       O144   1.935       .  S
O136        C143   1.282       .  A
O137        C151   1.266       .  A
O138        C143   1.267       .  A
O139        C142   1.271       .  A
O140        C152   1.259       .  A
O141        C154   1.274       .  A
C142        O147   1.264       .  A
C142        C192   1.476       .  S
C143        C252   1.470       .  S
O145        C148   1.271       .  A
O146        C148   1.275       .  A
C148        C300   1.486       .  S
O149        C154   1.263       .  A
O150        C152   1.273       .  A
C151        O153   1.285       .  A
C151        C180   1.487       .  S
C152        C204   1.485       .  S
C154        C261   1.479       .  S
Fe155       O171   2.103       .  S
Fe155       O161   2.020       .  S
Fe155      O1096   2.025       .  S
Fe155      O1088   2.092       .  S
Fe155       O166   1.939   1_565  S
Fe156       O159   2.121       .  S
Fe156       O163   2.065       .  S
Fe156       O167   2.100       .  S
Fe156       O172   2.017       .  S
Fe156       O166   1.943       .  S
Fe157       O175   2.030       .  S
Fe157       O162   2.123       .  S
Fe157       O169   2.105       .  S
Fe157      O1086   2.053       .  S
Fe157       O166   1.934       .  S
O158      Fe1085   2.055       .  S
O158        C165   1.261       .  A
O159        C173   1.278       .  A
O160      Fe1083   2.081       .  S
O160        C165   1.267       .  A
O161        C164   1.267   1_565  A
O162        C174   1.283       .  A
O163        C176   1.272       .  A
C164        O169   1.283       .  A
C164        C225   1.476       .  S
C165        C273   1.478       .  S
O167        C170   1.278   1_545  A
O168      Fe1083   2.034       .  S
O168       C1098   1.268       .  A
C170       O1096   1.265       .  A
C170       C1144   1.476       .  S
O171        C176   1.275   1_565  A
O172        C174   1.264       .  A
C173        O175   1.258       .  A
C173        C288   1.493       .  S
C174        C177   1.487       .  S
C176        C312   1.502       .  S
C177        C178   1.412       .  A
C177        C182   1.411       .  A
C178        C179   1.398       .  A
C178        H187   1.085       .  S
C179        C180   1.410       .  A
C179        S183   1.800       .  S
C180        C181   1.413       .  A
C181        C182   1.400       .  A
C181        H188   1.085       .  S
C182        S184   1.800       .  S
S183        H186   1.407       .  S
S184        H185   1.407       .  S
C189        C190   1.413       .  A
C189        C194   1.419       .  A
C190        C191   1.397       .  A
C190        H199   1.084       .  S
C191        C192   1.405       .  A
C191        S195   1.802       .  S
C192        C193   1.404       .  A
C193        C194   1.409       .  A
C193        H200   1.082       .  S
C194        S196   1.808       .  S
S195        H198   1.406       .  S
S196        H197   1.407       .  S
C201       C1048   1.481   1_545  S
C201        C202   1.402       .  A
C201        C206   1.413       .  A
C202        C203   1.406       .  A
C202        H211   1.083       .  S
C203        C204   1.418       .  A
C203        S207   1.803       .  S
C204        C205   1.404       .  A
C205        C206   1.401       .  A
C205        H212   1.084       .  S
C206        S208   1.800   1_545  S
S207        H210   1.408       .  S
S208        H209   1.406       .  S
C213        C214   1.404       .  A
C213        C218   1.408       .  A
C214       C1143   1.391       .  A
C214       H1151   1.085       .  S
C215       C1142   1.393       .  A
C215       C1144   1.406       .  A
C215        S219   1.804   1_565  S
C216       C1098   1.486       .  S
C216        C217   1.413       .  A
C216       C1143   1.417       .  A
C217        C218   1.399       .  A
C217        H224   1.083       .  S
C218        S220   1.801       .  S
S219        H222   1.408   1_545  S
S220        H221   1.406       .  S
H223       C1142   1.083       .  S
C225        C226   1.401   1_545  A
C225       C1158   1.420   1_545  A
C226       C1619   1.396       .  A
C226        H235   1.084   1_565  S
C227        C228   1.417   1_556  A
C227       C1618   1.396       .  A
C227       S1159   1.806   1_556  S
C228        C693   1.396   1_554  A
C229        C230   1.394       .  A
C229        C692   1.396       .  A
C229        H236   1.084       .  S
C230       C1153   1.418       .  A
C230        S232   1.804       .  S
S231       C1155   1.806   1_554  S
S231       H1162   1.401       .  S
S232        H233   1.408       .  S
H234       S1159   1.402       .  S
C237        C238   1.412       .  A
C237        C242   1.411       .  A
C238        C703   1.400       .  A
C238        H247   1.084       .  S
C239        C240   1.410       .  A
C239        C702   1.400       .  A
C239        S243   1.802       .  S
C240        C705   1.412   1_554  A
C241        C242   1.403       .  A
C241        C704   1.412       .  A
C241        H712   1.084       .  S
C242        S244   1.800       .  S
S243        H246   1.402       .  S
S244        H245   1.406       .  S
H248        C705   1.084       .  S
C249        C250   1.403       .  A
C249        C254   1.404       .  A
C250        C715   1.394       .  A
C250        H259   1.085       .  S
C251        C252   1.410       .  A
C251        C714   1.394   1_554  A
C251        S255   1.801       .  S
C252        C253   1.410       .  A
C253        C718   1.393       .  A
C253        H260   1.085       .  S
C254        C717   1.394       .  A
C254        S256   1.805       .  S
S255        H258   1.407       .  S
S256        H257   1.407       .  S
C261        C262   1.410       .  A
C261        C266   1.411       .  A
C262        C263   1.395       .  A
C262        H271   1.080       .  S
C263        C264   1.409       .  A
C263        S267   1.801       .  S
C264        C265   1.411       .  A
C265        C266   1.391       .  A
C265        H272   1.083       .  S
C266        S268   1.804       .  S
S267        H270   1.407       .  S
S268        H269   1.408       .  S
C273        C274   1.405       .  A
C273        C278   1.405       .  A
C274        C275   1.407       .  A
C274        H283   1.084       .  S
C275        C276   1.419       .  A
C275        S279   1.800       .  S
C276        C277   1.414       .  A
C277        C278   1.398       .  A
C277        H284   1.083       .  S
C278        S280   1.805       .  S
S279        H282   1.407       .  S
S280        H281   1.406       .  S
C285        C286   1.399       .  A
C285        C290   1.414       .  A
C286        C287   1.405       .  A
C286        H295   1.084       .  S
C287        C288   1.422       .  A
C287        S291   1.804       .  S
C288        C289   1.406       .  A
C289        C290   1.405       .  A
C289        H296   1.084       .  S
C290        S292   1.799       .  S
S291        H294   1.407       .  S
S292        H293   1.405       .  S
C297        C298   1.407       .  A
C297        C302   1.412       .  A
C298        C299   1.402   1_655  A
C298        H307   1.084       .  S
C299        C300   1.414       .  A
C299        S303   1.804       .  S
C300        C301   1.407       .  A
C301        C302   1.401   1_455  A
C301        H308   1.084       .  S
C302        S304   1.802       .  S
S303        H306   1.408       .  S
S304        H305   1.407       .  S
C309        C310   1.407   1_545  A
C309        C314   1.419       .  A
C310        C311   1.403       .  A
C310        H319   1.084       .  S
C311        C312   1.420   1_565  A
C311       S1243   1.800       .  S
C312        C313   1.409       .  A
C313        C314   1.405       .  A
C313        H320   1.084       .  S
C314        S316   1.803       .  S
S315       C1239   1.809       .  S
S315        H318   1.407       .  S
S316        H317   1.408       .  S
C321        C322   1.404       .  A
C321        C790   1.415   1_554  A
C322        C787   1.406   1_554  A
C322        H331   1.085       .  S
C323        C324   1.416       .  A
C323        C786   1.405       .  A
C323        S791   1.805       .  S
C324        C325   1.403       .  A
C325        C326   1.402       .  A
C325        H332   1.085       .  S
C326        C785   1.413       .  A
C326        S328   1.804       .  S
S327        C787   1.805   1_554  S
S327        H794   1.406   1_554  S
S328        H793   1.407       .  S
H329        S792   1.407   1_554  S
H330        S791   1.406       .  S
C333        C334   1.405       .  A
C333        C338   1.416       .  A
C334        C335   1.403       .  A
C334        H343   1.084       .  S
C335        C336   1.418       .  A
C335        S339   1.804       .  S
C336        C337   1.406       .  A
C337        C338   1.403       .  A
C337        H344   1.084       .  S
C338        S340   1.802       .  S
S339        H342   1.408       .  S
S340        H341   1.406       .  S
C345        C346   1.402       .  A
C345        C350   1.420       .  A
C346        C347   1.405       .  A
C346        H355   1.083       .  S
C347        C348   1.417       .  A
C347        S351   1.801       .  S
C348        C349   1.399       .  A
C349        C350   1.402       .  A
C349        H356   1.084       .  S
C350        S352   1.802       .  S
S351        H354   1.406       .  S
S352        H353   1.407       .  S
C357        C960   1.470   1_545  S
C357        C358   1.395       .  A
C357        C362   1.410       .  A
C358        C359   1.403       .  A
C358        H367   1.083       .  S
C359        C360   1.426       .  A
C359        S363   1.809       .  S
C360        C361   1.405       .  A
C361        C362   1.396       .  A
C361        H368   1.083       .  S
C362       S1292   1.799   1_545  S
S363        H366   1.407       .  S
S364       C1290   1.799       .  S
S364        H365   1.405       .  S
C369        C988   1.473       .  S
C369        C374   1.417       .  A
C369       C1762   1.403       .  A
C370       C1761   1.403   1_544  A
C370       C1299   1.397       .  A
C370        H379   1.083   1_554  S
C371        C372   1.411       .  A
C371       C1298   1.396       .  A
C371       S1303   1.810       .  S
C372        C373   1.397       .  A
C373        C838   1.397   1_554  A
C373        H380   1.082       .  S
C374        C837   1.397       .  A
C374        S376   1.804       .  S
S375       C1299   1.809       .  S
S375        H378   1.407       .  S
S376        H377   1.407       .  S
C381        C382   1.405       .  A
C381        C386   1.424       .  A
C382        C383   1.397       .  A
C382        H391   1.084       .  S
C383       C1312   1.413       .  A
C383        S387   1.804       .  S
C384        C385   1.399   1_565  A
C384       C1311   1.412       .  A
C385       C1314   1.400       .  A
C385        H392   1.085       .  S
C386       C1313   1.399       .  A
C386       S1316   1.804       .  S
S387        H390   1.407       .  S
S388       C1314   1.804       .  S
S388       H1317   1.408       .  S
H389       S1316   1.408       .  S
C393        C394   1.407       .  A
C393        C398   1.415       .  A
C394        C395   1.400   1_655  A
C394        H403   1.084       .  S
C395        C396   1.413       .  A
C395        S399   1.804       .  S
C396        C397   1.405       .  A
C397        C398   1.403   1_455  A
C397        H404   1.084       .  S
C398        S400   1.803       .  S
S399        H402   1.407       .  S
S400        H401   1.408       .  S
C405        C406   1.401       .  A
C405        C410   1.414       .  A
C406        C407   1.402       .  A
C406        H415   1.083       .  S
C407        C408   1.416       .  A
C407        S411   1.804       .  S
C408        C409   1.399       .  A
C409        C410   1.399       .  A
C409        H416   1.083       .  S
C410        S412   1.800       .  S
S411        H414   1.407       .  S
S412        H413   1.407       .  S
C417        C418   1.400       .  A
C417        C422   1.408       .  A
C418        C419   1.398       .  A
C418        H427   1.085       .  S
C419        C420   1.419       .  A
C419        S423   1.800       .  S
C420        C421   1.408       .  A
C421        C422   1.397       .  A
C421        H428   1.084       .  S
C422        S424   1.802       .  S
S423        H426   1.407       .  S
S424        H425   1.406       .  S
C429        C430   1.399       .  A
C429        C434   1.412       .  A
C430        C895   1.396       .  A
C430        H439   1.085       .  S
C431        C432   1.414   1_556  A
C431        C894   1.394       .  A
C431        S435   1.804   1_556  S
C432        C897   1.402   1_554  A
C433        C434   1.394       .  A
C433        C896   1.402       .  A
C433        H440   1.085       .  S
C434        S436   1.805       .  S
S435        H438   1.408       .  S
S436        H437   1.407       .  S
C441        C442   1.411       .  A
C441        C446   1.411       .  A
C442        C443   1.402       .  A
C442        H451   1.083       .  S
C443        C444   1.406       .  A
C443        S447   1.807       .  S
C444        C445   1.407       .  A
C445        C446   1.403       .  A
C445        H452   1.084       .  S
C446        S448   1.800       .  S
S447        H450   1.407       .  S
S448        H449   1.407       .  S
C453        C454   1.410       .  A
C453        C458   1.407       .  A
C454        C455   1.402       .  A
C454        H463   1.084       .  S
C455        C456   1.414       .  A
C455        S459   1.801       .  S
C456        C457   1.416       .  A
C457        C458   1.400       .  A
C457        H464   1.083       .  S
C458        S460   1.804       .  S
S459        H462   1.408       .  S
S460        H461   1.407       .  S
Fe465       O481   2.073       .  S
Fe465       O471   2.033       .  S
Fe465       O478   2.034       .  S
Fe465       O470   2.075       .  S
Fe465       O476   1.967       .  S
Fe466       O469   2.086       .  S
Fe466       O473   2.051       .  S
Fe466       O477   2.088       .  S
Fe466       O482   2.041       .  S
Fe466       O476   1.972       .  S
Fe467       O485   2.027       .  S
Fe467       O472   2.096       .  S
Fe467       O479   2.089       .  S
Fe467       O468   2.043       .  S
Fe467       O476   1.953       .  S
O468        C475   1.257       .  A
O469        C483   1.269       .  A
O470        C475   1.265       .  A
O471        C474   1.272       .  A
O472        C484   1.279       .  A
O473        C486   1.262       .  A
C474        O479   1.284       .  A
C474        C893   1.459       .  S
C475        C917   1.488       .  S
O477        C480   1.277       .  A
O478        C480   1.271       .  A
C480        C884   1.478       .  S
O481        C486   1.265       .  A
O482        C484   1.265       .  A
C483        O485   1.260       .  A
C483        C905   1.485       .  S
C484        C872   1.475       .  S
C486        C857   1.484       .  S
Fe487       O503   2.028       .  S
Fe487       O493   2.073       .  S
Fe487       O500   2.091       .  S
Fe487       O492   2.023       .  S
Fe487       O498   1.956       .  S
Fe488       O491   2.017       .  S
Fe488       O495   2.113       .  S
Fe488       O499   2.053       .  S
Fe488       O504   2.106       .  S
Fe488       O498   1.953       .  S
Fe489       O507   2.117       .  S
Fe489       O494   2.025       .  S
Fe489       O501   2.044       .  S
Fe489       O490   2.116       .  S
Fe489       O498   1.944       .  S
O490        C497   1.287       .  A
O491        C505   1.261       .  A
O492        C497   1.272       .  A
O493        C496   1.264       .  A
O494        C506   1.260       .  A
O495        C508   1.284       .  A
C496        O501   1.257       .  A
C496       C1749   1.470       .  S
C497        C836   1.464       .  S
O499        C502   1.264       .  A
O500        C502   1.269       .  A
C502        C797   1.487       .  S
O503        C508   1.267       .  A
O504        C506   1.276       .  A
C505        O507   1.282       .  A
C505        C869   1.471       .  S
C506        C809   1.488       .  S
C508        C845   1.484       .  S
Fe509       O525   2.112       .  S
Fe509       O515   2.028       .  S
Fe509      O1450   2.028       .  S
Fe509      O1442   2.097       .  S
Fe509       O520   1.932   1_565  S
Fe510       O513   2.126       .  S
Fe510       O517   2.050       .  S
Fe510       O521   2.092       .  S
Fe510       O526   2.023       .  S
Fe510       O520   1.942       .  S
Fe511       O529   2.027       .  S
Fe511       O516   2.141       .  S
Fe511       O523   2.112       .  S
Fe511      O1440   2.040       .  S
Fe511       O520   1.925       .  S
O512      Fe1439   2.047       .  S
O512        C519   1.263       .  A
O513        C527   1.277       .  A
O514      Fe1437   2.095       .  S
O514        C519   1.275       .  A
O515        C518   1.267       .  A
O516        C528   1.287       .  A
O517        C530   1.271       .  A
C518        O523   1.281   1_565  A
C518        C848   1.471       .  S
C519        C908   1.478       .  S
O521        C524   1.275   1_545  A
O522      Fe1437   2.024       .  S
O522       C1452   1.262       .  A
C524       O1450   1.262       .  A
C524       C1761   1.474       .  S
O525        C530   1.282   1_565  A
O526        C528   1.262       .  A
C527        O529   1.257       .  A
C527        C920   1.501       .  S
C528        C788   1.477       .  S
C530        C773   1.496       .  S
Fe531       O547   2.025       .  S
Fe531       O537   2.106       .  S
Fe531       O544   2.119       .  S
Fe531       O536   2.017       .  S
Fe531       O542   1.936       .  S
Fe532       O535   2.024       .  S
Fe532       O539   2.093       .  S
Fe532       O543   2.057       .  S
Fe532       O548   2.115       .  S
Fe532       O542   1.945       .  S
Fe533       O551   2.135       .  S
Fe533       O538   2.028       .  S
Fe533       O545   2.046       .  S
Fe533       O534   2.106       .  S
Fe533       O542   1.931       .  S
O534        C541   1.280       .  A
O535        C549   1.264       .  A
O536        C541   1.264       .  A
O537        C540   1.277       .  A
O538        C550   1.254       .  A
O539        C552   1.275       .  A
C540        O545   1.263       .  A
C540        C812   1.482       .  S
C541        C881   1.457       .  S
O543        C546   1.273       .  A
O544        C546   1.281       .  A
C546        C761   1.496       .  S
O547        C552   1.263       .  A
O548        C550   1.276       .  A
C549        O551   1.285       .  A
C549        C785   1.474       .  S
C550        C824   1.496       .  S
C552        C896   1.469       .  S
Fe553       O569   2.107       .  S
Fe553       O559   2.010       .  S
Fe553       O566   2.018       .  S
Fe553       O558   2.097       .  S
Fe553       O564   1.927       .  S
Fe554       O557   2.112       .  S
Fe554       O561   2.045       .  S
Fe554       O565   2.096       .  S
Fe554       O570   2.009       .  S
Fe554       O564   1.934       .  S
Fe555       O573   2.032       .  S
Fe555       O560   2.140       .  S
Fe555       O567   2.116       .  S
Fe555       O556   2.055       .  S
Fe555       O564   1.921       .  S
O556        C563   1.265       .  A
O557        C571   1.273       .  A
O558        C563   1.274       .  A
O559        C562   1.266       .  A
O560        C572   1.288       .  A
O561        C574   1.268       .  A
C562        O567   1.283       .  A
C562        C728   1.488       .  S
C563        C749   1.477       .  S
O565        C568   1.276       .  A
O566        C568   1.262       .  A
C568        C713   1.457       .  S
O569        C574   1.278       .  A
O570        C572   1.263       .  A
C571        O573   1.259       .  A
C571        C740   1.494       .  S
C572        C701   1.487       .  S
C574        C860   1.481       .  S
Fe575       O591   2.020       .  S
Fe575       O581   2.098       .  S
Fe575       O588   2.100       .  S
Fe575       O580   2.009       .  S
Fe575       O586   1.939       .  S
Fe576       O579   2.020       .  S
Fe576       O583   2.104       .  S
Fe576       O587   2.055       .  S
Fe576       O592   2.111       .  S
Fe576       O586   1.935       .  S
Fe577       O595   2.131       .  S
Fe577       O582   2.030       .  S
Fe577       O589   2.059       .  S
Fe577       O578   2.128       .  S
Fe577       O586   1.924       .  S
O578        C585   1.286       .  A
O579        C593   1.264       .  A
O580        C585   1.267       .  A
O581        C584   1.270       .  A
O582        C594   1.262       .  A
O583        C596   1.280       .  A
C584        O589   1.262       .  A
C584       C1593   1.479       .  S
C585        C677   1.490       .  S
O587        C590   1.266       .  A
O588        C590   1.273       .  A
C590        C800   1.489       .  S
O591        C596   1.266       .  A
O592        C594   1.276       .  A
C593        O595   1.286       .  A
C593        C704   1.484       .  S
C594        C653   1.494       .  S
C596        C692   1.460       .  S
Fe597       O613   2.027       .  S
Fe597       O603   2.097       .  S
Fe597       O610   2.112       .  S
Fe597       O602   2.019       .  S
Fe597       O608   1.940       .  S
Fe598       O601   2.018       .  S
Fe598       O605   2.091       .  S
Fe598       O609   2.060       .  S
Fe598       O614   2.111       .  S
Fe598       O608   1.942       .  S
Fe599       O617   2.132       .  S
Fe599       O604   2.034       .  S
Fe599       O611   2.053       .  S
Fe599       O600   2.106       .  S
Fe599       O608   1.934       .  S
O600        C607   1.282       .  A
O601        C615   1.265       .  A
O602        C607   1.268       .  A
O603        C606   1.274       .  A
O604        C616   1.258       .  A
O605        C618   1.275       .  A
C606        O611   1.263       .  A
C606        C656   1.479       .  S
C607        C716   1.475       .  S
O609        C612   1.271       .  A
O610        C612   1.279       .  A
C612        C764   1.496       .  S
O613        C618   1.265       .  A
O614        C616   1.275       .  A
C615        O617   1.286       .  A
C615        C644   1.489       .  S
C616        C668   1.488       .  S
C618        C725   1.481       .  S
Fe619       O635   2.089   1_565  S
Fe619       O625   2.025       .  S
Fe619      O1560   2.033       .  S
Fe619      O1552   2.077       .  S
Fe619       O630   1.945   1_565  S
Fe620       O623   2.101       .  S
Fe620       O627   2.064       .  S
Fe620       O631   2.093       .  S
Fe620       O636   2.027       .  S
Fe620       O630   1.946       .  S
Fe621       O639   2.028       .  S
Fe621       O626   2.117       .  S
Fe621       O633   2.103       .  S
Fe621      O1550   2.054       .  S
Fe621       O630   1.938       .  S
O622      Fe1549   2.053       .  S
O622        C629   1.262       .  A
O623        C637   1.274       .  A
O624      Fe1547   2.091       .  S
O624        C629   1.270       .  A
O625        C628   1.271   1_565  A
O626        C638   1.284       .  A
O627        C640   1.269       .  A
C628        O633   1.285       .  A
C628        C689   1.472       .  S
C629        C737   1.476       .  S
O631        C634   1.276   1_545  A
O632      Fe1547   2.024       .  S
O632       C1562   1.266       .  A
C634       O1560   1.268       .  A
C634       C1608   1.485       .  S
O635        C640   1.270       .  A
O636        C638   1.266       .  A
C637        O639   1.259       .  A
C637        C752   1.485       .  S
C638        C641   1.483       .  S
C640        C776   1.495       .  S
C641        C642   1.410       .  A
C641        C646   1.409       .  A
C642        C643   1.401       .  A
C642        H651   1.084       .  S
C643        C644   1.412       .  A
C643        S647   1.799       .  S
C644        C645   1.413       .  A
C645        C646   1.400       .  A
C645        H652   1.084       .  S
C646        S648   1.800       .  S
S647        H650   1.407       .  S
S648        H649   1.407       .  S
C653        C654   1.412       .  A
C653        C658   1.418       .  A
C654        C655   1.399       .  A
C654        H663   1.085       .  S
C655        C656   1.406       .  A
C655        S659   1.801       .  S
C656        C657   1.404       .  A
C657        C658   1.409       .  A
C657        H664   1.082       .  S
C658        S660   1.808       .  S
S659        H662   1.406       .  S
S660        H661   1.407       .  S
C665       C1512   1.481   1_545  S
C665        C666   1.400       .  A
C665        C670   1.414       .  A
C666        C667   1.405       .  A
C666        H675   1.083       .  S
C667        C668   1.420       .  A
C667        S671   1.804       .  S
C668        C669   1.405       .  A
C669        C670   1.402       .  A
C669        H676   1.084       .  S
C670        S672   1.801   1_545  S
S671        H674   1.408       .  S
S672        H673   1.405       .  S
C677        C678   1.415       .  A
C677        C682   1.413       .  A
C678       C1607   1.393       .  A
C678       H1615   1.084       .  S
C679       C1606   1.391       .  A
C679       C1608   1.417   1_545  A
C679        S683   1.803       .  S
C680       C1562   1.477       .  S
C680       C1607   1.406       .  A
C680        C681   1.408       .  A
C681        C682   1.398       .  A
C681        H688   1.082       .  S
C682        S684   1.801       .  S
S683        H686   1.408       .  S
S684        H685   1.408       .  S
H687       C1606   1.085       .  S
C689        C690   1.400       .  A
C689       C1622   1.419       .  A
C690       C1155   1.393   1_545  A
C690        H699   1.084       .  S
C691       C1154   1.394       .  A
C691        C692   1.416       .  A
C691       S1623   1.806       .  S
C693        C694   1.394       .  A
C693        H700   1.084   1_556  S
C694       C1617   1.420       .  A
C694        S696   1.805       .  S
S695       C1619   1.806       .  S
S695       H1626   1.401       .  S
S696        H697   1.408       .  S
H698       S1623   1.401       .  S
C701        C702   1.414   1_556  A
C701        C706   1.410       .  A
C702        H711   1.084       .  S
C703        C704   1.412       .  A
C703        S707   1.803       .  S
C705        C706   1.400       .  A
C706        S708   1.800       .  S
S707        H710   1.398       .  S
S708        H709   1.407       .  S
C713        C714   1.404       .  A
C713        C718   1.404   1_556  A
C714        H723   1.085       .  S
C715        C716   1.411       .  A
C715        S719   1.799       .  S
C716        C717   1.411       .  A
C717        H724   1.084       .  S
C718        S720   1.804   1_554  S
S719        H722   1.406       .  S
S720        H721   1.406       .  S
C725        C726   1.409       .  A
C725        C730   1.409       .  A
C726        C727   1.398       .  A
C726        H735   1.080       .  S
C727        C728   1.413       .  A
C727        S731   1.801       .  S
C728        C729   1.413       .  A
C729        C730   1.392       .  A
C729        H736   1.083       .  S
C730        S732   1.804       .  S
S731        H734   1.407       .  S
S732        H733   1.408       .  S
C737        C738   1.403       .  A
C737        C742   1.407       .  A
C738        C739   1.403       .  A
C738        H747   1.084       .  S
C739        C740   1.418       .  A
C739        S743   1.800       .  S
C740        C741   1.413       .  A
C741        C742   1.400       .  A
C741        H748   1.084       .  S
C742        S744   1.801       .  S
S743        H746   1.407       .  S
S744        H745   1.406       .  S
C749        C750   1.400       .  A
C749        C754   1.412       .  A
C750        C751   1.403       .  A
C750        H759   1.084       .  S
C751        C752   1.420       .  A
C751        S755   1.804       .  S
C752        C753   1.404       .  A
C753        C754   1.401       .  A
C753        H760   1.084       .  S
C754        S756   1.799       .  S
S755        H758   1.408       .  S
S756        H757   1.406       .  S
C761        C762   1.407       .  A
C761        C766   1.416       .  A
C762        C763   1.404   1_655  A
C762        H771   1.084       .  S
C763        C764   1.417       .  A
C763        S767   1.803       .  S
C764        C765   1.408       .  A
C765        C766   1.407   1_455  A
C765        H772   1.084       .  S
C766        S768   1.802       .  S
S767        H770   1.408       .  S
S768        H769   1.407       .  S
C773        C774   1.406   1_545  A
C773        C778   1.419       .  A
C774        C775   1.401       .  A
C774        H783   1.084       .  S
C775        C776   1.418   1_565  A
C775       S1707   1.800       .  S
C776        C777   1.407       .  A
C777        C778   1.403       .  A
C777        H784   1.084       .  S
C778        S780   1.803       .  S
S779       C1703   1.800       .  S
S779        H782   1.408       .  S
S780        H781   1.408       .  S
C785        C786   1.403       .  A
C786        H795   1.085       .  S
C787        C788   1.417       .  A
C788        C789   1.401       .  A
C789        C790   1.402       .  A
C789        H796   1.085       .  S
C790        S792   1.804       .  S
C797        C798   1.405       .  A
C797        C802   1.415       .  A
C798        C799   1.401       .  A
C798        H807   1.084       .  S
C799        C800   1.416       .  A
C799        S803   1.804       .  S
C800        C801   1.407       .  A
C801        C802   1.403       .  A
C801        H808   1.083       .  S
C802        S804   1.802       .  S
S803        H806   1.408       .  S
S804        H805   1.407       .  S
C809        C810   1.402       .  A
C809        C814   1.419       .  A
C810        C811   1.403       .  A
C810        H819   1.083       .  S
C811        C812   1.417       .  A
C811        S815   1.800       .  S
C812        C813   1.399       .  A
C813        C814   1.402       .  A
C813        H820   1.084       .  S
C814        S816   1.801       .  S
S815        H818   1.406       .  S
S816        H817   1.407       .  S
C821       C1424   1.476   1_545  S
C821        C822   1.397       .  A
C821        C826   1.411       .  A
C822        C823   1.406       .  A
C822        H831   1.082       .  S
C823        C824   1.427       .  A
C823        S827   1.811       .  S
C824        C825   1.406       .  A
C825        C826   1.400       .  A
C825        H832   1.083       .  S
C826       S1756   1.799   1_545  S
S827        H830   1.407       .  S
S828       C1754   1.799       .  S
S828        H829   1.405       .  S
C833       C1452   1.473       .  S
C833       C1298   1.402   1_556  A
C833        C838   1.417       .  A
C834       C1297   1.402   1_545  A
C834       C1763   1.397       .  A
C834        H843   1.083       .  S
C835       C1762   1.398       .  A
C835        C836   1.410       .  A
C835       S1767   1.809       .  S
C836        C837   1.397       .  A
C837        H844   1.082       .  S
C838        S840   1.804       .  S
S839       C1763   1.809       .  S
S839        H842   1.407       .  S
S840        H841   1.407       .  S
C845        C846   1.405       .  A
C845        C850   1.421       .  A
C846        C847   1.397       .  A
C846        H855   1.084       .  S
C847       C1776   1.412       .  A
C847        S851   1.804       .  S
C848       C1775   1.413       .  A
C848        C849   1.398   1_565  A
C849       C1778   1.400       .  A
C849        H856   1.085       .  S
C850       C1777   1.401       .  A
C850       S1780   1.804       .  S
S851        H854   1.407       .  S
S852       C1778   1.804       .  S
S852       H1781   1.408       .  S
H853       S1780   1.408       .  S
C857        C858   1.405       .  A
C857        C862   1.415       .  A
C858        C859   1.399   1_655  A
C858        H867   1.084       .  S
C859        C860   1.414       .  A
C859        S863   1.804       .  S
C860        C861   1.405       .  A
C861        C862   1.402   1_455  A
C861        H868   1.084       .  S
C862        S864   1.803       .  S
S863        H866   1.407       .  S
S864        H865   1.407       .  S
C869        C870   1.400       .  A
C869        C874   1.416       .  A
C870        C871   1.402       .  A
C870        H879   1.083       .  S
C871        C872   1.419       .  A
C871        S875   1.803       .  S
C872        C873   1.399       .  A
C873        C874   1.399       .  A
C873        H880   1.083       .  S
C874        S876   1.801       .  S
S875        H878   1.407       .  S
S876        H877   1.407       .  S
C881        C882   1.400       .  A
C881        C886   1.406       .  A
C882        C883   1.397       .  A
C882        H891   1.085       .  S
C883        C884   1.417       .  A
C883        S887   1.799       .  S
C884        C885   1.407       .  A
C885        C886   1.394       .  A
C885        H892   1.084       .  S
C886        S888   1.804       .  S
S887        H890   1.407       .  S
S888        H889   1.406       .  S
C893        C894   1.399       .  A
C893        C898   1.413       .  A
C894        H903   1.085       .  S
C895        C896   1.415       .  A
C895        S899   1.804       .  S
C897        C898   1.393       .  A
C897        H904   1.085       .  S
C898        S900   1.806       .  S
S899        H902   1.407       .  S
S900        H901   1.407       .  S
C905        C906   1.411       .  A
C905        C910   1.412       .  A
C906        C907   1.403       .  A
C906        H915   1.082       .  S
C907        C908   1.406       .  A
C907        S911   1.806       .  S
C908        C909   1.406       .  A
C909        C910   1.402       .  A
C909        H916   1.083       .  S
C910        S912   1.800       .  S
S911        H914   1.407       .  S
S912        H913   1.407       .  S
C917        C918   1.410       .  A
C917        C922   1.408       .  A
C918        C919   1.405       .  A
C918        H927   1.083       .  S
C919        C920   1.416       .  A
C919        S923   1.800       .  S
C920        C921   1.417       .  A
C921        C922   1.401       .  A
C921        H928   1.083       .  S
C922        S924   1.804       .  S
S923        H926   1.408       .  S
S924        H925   1.407       .  S
Fe929       O945   2.075       .  S
Fe929       O935   2.037       .  S
Fe929       O942   2.038       .  S
Fe929       O934   2.077       .  S
Fe929       O940   1.968       .  S
Fe930       O933   2.092       .  S
Fe930       O937   2.051       .  S
Fe930       O941   2.092       .  S
Fe930       O946   2.039       .  S
Fe930       O940   1.973       .  S
Fe931       O949   2.025       .  S
Fe931       O936   2.097       .  S
Fe931       O943   2.091       .  S
Fe931       O932   2.043       .  S
Fe931       O940   1.954       .  S
O932        C939   1.257       .  A
O933        C947   1.270       .  A
O934        C939   1.265       .  A
O935        C938   1.273       .  A
O936        C948   1.280       .  A
O937        C950   1.263       .  A
C938        O943   1.283       .  A
C938       C1357   1.460       .  S
C939       C1381   1.487       .  S
O941        C944   1.278       .  A
O942        C944   1.271       .  A
C944       C1348   1.480       .  S
O945        C950   1.266       .  A
O946        C948   1.265       .  A
C947        O949   1.259       .  A
C947       C1369   1.487       .  S
C948       C1336   1.475       .  S
C950       C1321   1.484       .  S
Fe951       O967   2.028       .  S
Fe951       O957   2.070   1_565  S
Fe951       O964   2.087       .  S
Fe951       O956   2.025       .  S
Fe951       O962   1.957       .  S
Fe952       O955   2.018       .  S
Fe952       O959   2.114       .  S
Fe952       O963   2.053       .  S
Fe952       O968   2.102       .  S
Fe952       O962   1.954       .  S
Fe953       O971   2.116       .  S
Fe953       O958   2.028       .  S
Fe953       O965   2.043       .  S
Fe953       O954   2.115       .  S
Fe953       O962   1.945       .  S
O954        C961   1.288       .  A
O955        C969   1.262       .  A
O956        C961   1.272       .  A
O957        C960   1.262   1_545  A
O958        C970   1.260       .  A
O959        C972   1.284       .  A
C960        O965   1.256       .  A
C961       C1300   1.466       .  S
O963        C966   1.263       .  A
O964        C966   1.268       .  A
C966       C1261   1.487       .  S
O967        C972   1.268       .  A
O968        C970   1.275       .  A
C969        O971   1.282       .  A
C969       C1333   1.472       .  S
C970       C1273   1.486       .  S
C972       C1309   1.486       .  S
Fe973       O989   2.111       .  S
Fe973       O979   2.028       .  S
Fe973       O984   1.937       .  S
Fe974       O977   2.121       .  S
Fe974       O981   2.055       .  S
Fe974       O985   2.094       .  S
Fe974       O990   2.023       .  S
Fe974       O984   1.945       .  S
Fe975       O993   2.031       .  S
Fe975       O980   2.136       .  S
Fe975       O987   2.112       .  S
Fe975       O984   1.932       .  S
O976        C983   1.263   1_545  A
O977        C991   1.277       .  A
O978        C983   1.275       .  A
O979        C982   1.268       .  A
O980        C992   1.285       .  A
O981        C994   1.271       .  A
C982        O987   1.282       .  A
C982       C1312   1.471       .  S
C983       C1372   1.478       .  S
O985        C988   1.276       .  A
O989        C994   1.280       .  A
O990        C992   1.262       .  A
C991        O993   1.259       .  A
C991       C1384   1.502       .  S
C992       C1252   1.475       .  S
C994       C1237   1.499       .  S
Fe995      O1011   2.026       .  S
Fe995      O1001   2.104       .  S
Fe995      O1008   2.117       .  S
Fe995      O1000   2.020       .  S
Fe995      O1006   1.936       .  S
Fe996       O999   2.023       .  S
Fe996      O1003   2.092       .  S
Fe996      O1007   2.053       .  S
Fe996      O1012   2.114       .  S
Fe996      O1006   1.944       .  S
Fe997      O1015   2.136       .  S
Fe997      O1002   2.029       .  S
Fe997      O1009   2.046       .  S
Fe997       O998   2.109       .  S
Fe997      O1006   1.930       .  S
O998       C1005   1.281       .  A
O999       C1013   1.265       .  A
O1000      C1005   1.265       .  A
O1001      C1004   1.276       .  A
O1002      C1014   1.255       .  A
O1003      C1016   1.274       .  A
C1004      O1009   1.263       .  A
C1004      C1276   1.481       .  S
C1005      C1345   1.460       .  S
O1007      C1010   1.273       .  A
O1008      C1010   1.282       .  A
C1010      C1225   1.492       .  S
O1011      C1016   1.263       .  A
O1012      C1014   1.275       .  A
C1013      O1015   1.286       .  A
C1013      C1249   1.474       .  S
C1014      C1288   1.495       .  S
C1016      C1360   1.470       .  S
Fe1017     O1033   2.110       .  S
Fe1017     O1023   2.009       .  S
Fe1017     O1030   2.016       .  S
Fe1017     O1022   2.098       .  S
Fe1017     O1028   1.927       .  S
Fe1018     O1021   2.110       .  S
Fe1018     O1025   2.044       .  S
Fe1018     O1029   2.095       .  S
Fe1018     O1034   2.009       .  S
Fe1018     O1028   1.933       .  S
Fe1019     O1037   2.032       .  S
Fe1019     O1024   2.142       .  S
Fe1019     O1031   2.118       .  S
Fe1019     O1020   2.053       .  S
Fe1019     O1028   1.921       .  S
O1020      C1027   1.264       .  A
O1021      C1035   1.273       .  A
O1022      C1027   1.274       .  A
O1023      C1026   1.266       .  A
O1024      C1036   1.288       .  A
O1025      C1038   1.268       .  A
C1026      O1031   1.283       .  A
C1026      C1192   1.486       .  S
C1027      C1213   1.476       .  S
O1029      C1032   1.276       .  A
O1030      C1032   1.262       .  A
C1032      C1177   1.456       .  S
O1033      C1038   1.278       .  A
O1034      C1036   1.263       .  A
C1035      O1037   1.259       .  A
C1035      C1204   1.494       .  S
C1036      C1165   1.488       .  S
C1038      C1324   1.481       .  S
Fe1039     O1055   2.022       .  S
Fe1039     O1045   2.098   1_565  S
Fe1039     O1052   2.098       .  S
Fe1039     O1044   2.010       .  S
Fe1039     O1050   1.938       .  S
Fe1040     O1043   2.019       .  S
Fe1040     O1047   2.103       .  S
Fe1040     O1051   2.052       .  S
Fe1040     O1056   2.112       .  S
Fe1040     O1050   1.936       .  S
Fe1041     O1059   2.132       .  S
Fe1041     O1046   2.029       .  S
Fe1041     O1053   2.061       .  S
Fe1041     O1042   2.124       .  S
Fe1041     O1050   1.924       .  S
O1042      C1049   1.286       .  A
O1043      C1057   1.264       .  A
O1044      C1049   1.267       .  A
O1045      C1048   1.271   1_545  A
O1046      C1058   1.262       .  A
O1047      C1060   1.280       .  A
C1048      O1053   1.263       .  A
C1049      C1141   1.489       .  S
O1051      C1054   1.266       .  A
O1052      C1054   1.274       .  A
C1054      C1264   1.488       .  S
O1055      C1060   1.266       .  A
O1056      C1058   1.276       .  A
C1057      O1059   1.286       .  A
C1057      C1168   1.482       .  S
C1058      C1117   1.495       .  S
C1060      C1156   1.460       .  S
Fe1061     O1077   2.030       .  S
Fe1061     O1067   2.092       .  S
Fe1061     O1074   2.109       .  S
Fe1061     O1066   2.021       .  S
Fe1061     O1072   1.940       .  S
Fe1062     O1065   2.018       .  S
Fe1062     O1069   2.087       .  S
Fe1062     O1073   2.059       .  S
Fe1062     O1078   2.109       .  S
Fe1062     O1072   1.943       .  S
Fe1063     O1081   2.129       .  S
Fe1063     O1068   2.036       .  S
Fe1063     O1075   2.054       .  S
Fe1063     O1064   2.100       .  S
Fe1063     O1072   1.934       .  S
O1064      C1071   1.281       .  A
O1065      C1079   1.266       .  A
O1066      C1071   1.268       .  A
O1067      C1070   1.272       .  A
O1068      C1080   1.257       .  A
O1069      C1082   1.273       .  A
C1070      O1075   1.263       .  A
C1070      C1120   1.478       .  S
C1071      C1180   1.475       .  S
O1073      C1076   1.272       .  A
O1074      C1076   1.279       .  A
C1076      C1228   1.493       .  S
O1077      C1082   1.264       .  A
O1078      C1080   1.273       .  A
C1079      O1081   1.286       .  A
C1079      C1108   1.487       .  S
C1080      C1132   1.487       .  S
C1082      C1189   1.483       .  S
Fe1083     O1099   2.098       .  S
Fe1083     O1089   2.026       .  S
Fe1083     O1094   1.946       .  S
Fe1084     O1087   2.099       .  S
Fe1084     O1091   2.061       .  S
Fe1084     O1095   2.093       .  S
Fe1084     O1100   2.025       .  S
Fe1084     O1094   1.946       .  S
Fe1085     O1103   2.026       .  S
Fe1085     O1090   2.115       .  S
Fe1085     O1097   2.101       .  S
Fe1085     O1094   1.940       .  S
O1086      C1093   1.263   1_545  A
O1087      C1101   1.274       .  A
O1088      C1093   1.271       .  A
O1089      C1092   1.271       .  A
O1090      C1102   1.283       .  A
O1091      C1104   1.268       .  A
C1092      O1097   1.285       .  A
C1092      C1153   1.471       .  S
C1093      C1201   1.475       .  S
O1095      C1098   1.276       .  A
O1099      C1104   1.272       .  A
O1100      C1102   1.266       .  A
C1101      O1103   1.259       .  A
C1101      C1216   1.483       .  S
C1102      C1105   1.481       .  S
C1104      C1240   1.497       .  S
C1105      C1106   1.410       .  A
C1105      C1110   1.409       .  A
C1106      C1107   1.400       .  A
C1106      H1115   1.084       .  S
C1107      C1108   1.411       .  A
C1107      S1111   1.799       .  S
C1108      C1109   1.413       .  A
C1109      C1110   1.399       .  A
C1109      H1116   1.084       .  S
C1110      S1112   1.801       .  S
S1111      H1114   1.407       .  S
S1112      H1113   1.407       .  S
C1117      C1118   1.413       .  A
C1117      C1122   1.417       .  A
C1118      C1119   1.398       .  A
C1118      H1127   1.084       .  S
C1119      C1120   1.405       .  A
C1119      S1123   1.802       .  S
C1120      C1121   1.405       .  A
C1121      C1122   1.409       .  A
C1121      H1128   1.082       .  S
C1122      S1124   1.808       .  S
S1123      H1126   1.406       .  S
S1124      H1125   1.407       .  S
C1129      C1130   1.401       .  A
C1129      C1134   1.414       .  A
C1130      C1131   1.405       .  A
C1130      H1139   1.083       .  S
C1131      C1132   1.419       .  A
C1131      S1135   1.803       .  S
C1132      C1133   1.404       .  A
C1133      C1134   1.402       .  A
C1133      H1140   1.084       .  S
C1134      S1136   1.801       .  S
S1135      H1138   1.408       .  S
S1136      H1137   1.406       .  S
C1141      C1142   1.415       .  A
C1141      C1146   1.414       .  A
C1143      S1147   1.803       .  S
C1144      C1145   1.407       .  A
C1145      C1146   1.397       .  A
C1145      H1152   1.081       .  S
C1146      S1148   1.801       .  S
S1147      H1150   1.408       .  S
S1148      H1149   1.408       .  S
C1153      C1154   1.400       .  A
C1154      H1163   1.084       .  S
C1155      C1156   1.415   1_556  A
C1156      C1621   1.397   1_554  A
C1157      C1620   1.396       .  A
C1157      C1158   1.394       .  A
C1157      H1164   1.084       .  S
C1158      S1160   1.805   1_565  S
S1160      H1161   1.408       .  S
C1165      C1166   1.414       .  A
C1165      C1170   1.411       .  A
C1166      C1631   1.400       .  A
C1166      H1175   1.085       .  S
C1167      C1630   1.399   1_554  A
C1167      C1168   1.411       .  A
C1167      S1171   1.803       .  S
C1168      C1633   1.411   1_554  A
C1169      C1632   1.412       .  A
C1169      C1170   1.401       .  A
C1169      H1640   1.084       .  S
C1170      S1172   1.800       .  S
S1171      H1174   1.399       .  S
S1172      H1173   1.406       .  S
H1176      C1633   1.084       .  S
C1177      C1178   1.404       .  A
C1177      C1182   1.403       .  A
C1178      C1643   1.393       .  A
C1178      H1187   1.085       .  S
C1179      C1642   1.393   1_554  A
C1179      C1180   1.412       .  A
C1179      S1183   1.801       .  S
C1180      C1181   1.411       .  A
C1181      C1646   1.394       .  A
C1181      H1188   1.084       .  S
C1182      C1645   1.393       .  A
C1182      S1184   1.804       .  S
S1183      H1186   1.407       .  S
S1184      H1185   1.406       .  S
C1189      C1190   1.410       .  A
C1189      C1194   1.411       .  A
C1190      C1191   1.399       .  A
C1190      H1199   1.081       .  S
C1191      C1192   1.412       .  A
C1191      S1195   1.801       .  S
C1192      C1193   1.412       .  A
C1193      C1194   1.391       .  A
C1193      H1200   1.083       .  S
C1194      S1196   1.804       .  S
S1195      H1198   1.407       .  S
S1196      H1197   1.408       .  S
C1201      C1202   1.403       .  A
C1201      C1206   1.406       .  A
C1202      C1203   1.403       .  A
C1202      H1211   1.084       .  S
C1203      C1204   1.418       .  A
C1203      S1207   1.800       .  S
C1204      C1205   1.413       .  A
C1205      C1206   1.400       .  A
C1205      H1212   1.083       .  S
C1206      S1208   1.800       .  S
S1207      H1210   1.407       .  S
S1208      H1209   1.406       .  S
C1213      C1214   1.400       .  A
C1213      C1218   1.413       .  A
C1214      C1215   1.402       .  A
C1214      H1223   1.084       .  S
C1215      C1216   1.419       .  A
C1215      S1219   1.805       .  S
C1216      C1217   1.404       .  A
C1217      C1218   1.401       .  A
C1217      H1224   1.084       .  S
C1218      S1220   1.799       .  S
S1219      H1222   1.408       .  S
S1220      H1221   1.405       .  S
C1225      C1226   1.407       .  A
C1225      C1230   1.415       .  A
C1226      C1227   1.403   1_655  A
C1226      H1235   1.084       .  S
C1227      C1228   1.416       .  A
C1227      S1231   1.803       .  S
C1228      C1229   1.408       .  A
C1229      C1230   1.405   1_455  A
C1229      H1236   1.084       .  S
C1230      S1232   1.802       .  S
S1231      H1234   1.408       .  S
S1232      H1233   1.407       .  S
C1237      C1238   1.408       .  A
C1237      C1242   1.418       .  A
C1238      C1239   1.408       .  A
C1238      H1247   1.082       .  S
C1239      C1240   1.418       .  A
C1240      C1241   1.407       .  A
C1241      C1242   1.403       .  A
C1241      H1248   1.084       .  S
C1242      S1244   1.803       .  S
S1243      H1246   1.408       .  S
S1244      H1245   1.408       .  S
C1249      C1250   1.403       .  A
C1249      C1718   1.414   1_554  A
C1250      C1715   1.404       .  A
C1250      H1259   1.085       .  S
C1251      C1714   1.404       .  A
C1251      C1252   1.415       .  A
C1251      S1719   1.805       .  S
C1252      C1253   1.402       .  A
C1253      C1254   1.402       .  A
C1253      H1260   1.085       .  S
C1254      C1713   1.414       .  A
C1254      S1256   1.805       .  S
S1255      C1715   1.804       .  S
S1255      H1722   1.406   1_554  S
S1256      H1721   1.406       .  S
H1257      S1720   1.407   1_554  S
H1258      S1719   1.406       .  S
C1261      C1262   1.405       .  A
C1261      C1266   1.416       .  A
C1262      C1263   1.400       .  A
C1262      H1271   1.084       .  S
C1263      C1264   1.416       .  A
C1263      S1267   1.803       .  S
C1264      C1265   1.407       .  A
C1265      C1266   1.402       .  A
C1265      H1272   1.084       .  S
C1266      S1268   1.802   1_565  S
S1267      H1270   1.408       .  S
S1268      H1269   1.406   1_545  S
C1273      C1274   1.401       .  A
C1273      C1278   1.419       .  A
C1274      C1275   1.402       .  A
C1274      H1283   1.083       .  S
C1275      C1276   1.417       .  A
C1275      S1279   1.800       .  S
C1276      C1277   1.400       .  A
C1277      C1278   1.402       .  A
C1277      H1284   1.084       .  S
C1278      S1280   1.800       .  S
S1279      H1282   1.406       .  S
S1280      H1281   1.407       .  S
C1285      C1286   1.397       .  A
C1285      C1290   1.411       .  A
C1286      C1287   1.407       .  A
C1286      H1295   1.082       .  S
C1287      C1288   1.426       .  A
C1287      S1291   1.810       .  S
C1288      C1289   1.406       .  A
C1289      C1290   1.400       .  A
C1289      H1296   1.083       .  S
S1291      H1294   1.407       .  S
S1292      H1293   1.405   1_565  S
C1297      C1302   1.417       .  A
C1298      H1307   1.083   1_554  S
C1299      C1300   1.411   1_545  A
C1300      C1301   1.397       .  A
C1301      C1766   1.397   1_554  A
C1301      H1308   1.082       .  S
C1302      C1765   1.396       .  A
C1302      S1304   1.804       .  S
S1303      H1306   1.407       .  S
S1304      H1305   1.407       .  S
C1309      C1310   1.406       .  A
C1309      C1314   1.421   1_565  A
C1310      C1311   1.399       .  A
C1310      H1319   1.084       .  S
C1311      S1315   1.804       .  S
C1312      C1313   1.397       .  A
C1313      H1320   1.085       .  S
S1315      H1318   1.407       .  S
C1321      C1322   1.405       .  A
C1321      C1326   1.415       .  A
C1322      C1323   1.399   1_655  A
C1322      H1331   1.084       .  S
C1323      C1324   1.414       .  A
C1323      S1327   1.805       .  S
C1324      C1325   1.405       .  A
C1325      C1326   1.403   1_455  A
C1325      H1332   1.084       .  S
C1326      S1328   1.803       .  S
S1327      H1330   1.407       .  S
S1328      H1329   1.407       .  S
C1333      C1334   1.400       .  A
C1333      C1338   1.415       .  A
C1334      C1335   1.402       .  A
C1334      H1343   1.083       .  S
C1335      C1336   1.419       .  A
C1335      S1339   1.804       .  S
C1336      C1337   1.399       .  A
C1337      C1338   1.399       .  A
C1337      H1344   1.084       .  S
C1338      S1340   1.800       .  S
S1339      H1342   1.407       .  S
S1340      H1341   1.407       .  S
C1345      C1346   1.400       .  A
C1345      C1350   1.407       .  A
C1346      C1347   1.397       .  A
C1346      H1355   1.085       .  S
C1347      C1348   1.417       .  A
C1347      S1351   1.798       .  S
C1348      C1349   1.407       .  A
C1349      C1350   1.396       .  A
C1349      H1356   1.084       .  S
C1350      S1352   1.804       .  S
S1351      H1354   1.407       .  S
S1352      H1353   1.406       .  S
C1357      C1358   1.399       .  A
C1357      C1362   1.412       .  A
C1358      C1823   1.395       .  A
C1358      H1367   1.085       .  S
C1359      C1822   1.395       .  A
C1359      C1360   1.415   1_556  A
C1359      S1363   1.804   1_556  S
C1360      C1825   1.402   1_554  A
C1361      C1824   1.402       .  A
C1361      C1362   1.393       .  A
C1361      H1368   1.084       .  S
C1362      S1364   1.805       .  S
S1363      H1366   1.407       .  S
S1364      H1365   1.407       .  S
C1369      C1370   1.412       .  A
C1369      C1374   1.412       .  A
C1370      C1371   1.403       .  A
C1370      H1379   1.083       .  S
C1371      C1372   1.405       .  A
C1371      S1375   1.806       .  S
C1372      C1373   1.406       .  A
C1373      C1374   1.403       .  A
C1373      H1380   1.084       .  S
C1374      S1376   1.799       .  S
S1375      H1378   1.407       .  S
S1376      H1377   1.407       .  S
C1381      C1382   1.409       .  A
C1381      C1386   1.408       .  A
C1382      C1383   1.404       .  A
C1382      H1391   1.084       .  S
C1383      C1384   1.416       .  A
C1383      S1387   1.800       .  S
C1384      C1385   1.416       .  A
C1385      C1386   1.402       .  A
C1385      H1392   1.084       .  S
C1386      S1388   1.804       .  S
S1387      H1390   1.408       .  S
S1388      H1389   1.407       .  S
Fe1393     O1409   2.077       .  S
Fe1393     O1399   2.040       .  S
Fe1393     O1406   2.042       .  S
Fe1393     O1398   2.081       .  S
Fe1393     O1404   1.968       .  S
Fe1394     O1397   2.085       .  S
Fe1394     O1401   2.048       .  S
Fe1394     O1405   2.083       .  S
Fe1394     O1410   2.044       .  S
Fe1394     O1404   1.975       .  S
Fe1395     O1413   2.021       .  S
Fe1395     O1400   2.092       .  S
Fe1395     O1407   2.088       .  S
Fe1395     O1396   2.033       .  S
Fe1395     O1404   1.953       .  S
O1396      C1403   1.255       .  A
O1397      C1411   1.269       .  A
O1398      C1403   1.266       .  A
O1399      C1402   1.273       .  A
O1400      C1412   1.278       .  A
O1401      C1414   1.262       .  A
C1402      O1407   1.283       .  A
C1402      C1821   1.463       .  S
C1403      C1845   1.485       .  S
O1405      C1408   1.276       .  A
O1406      C1408   1.272       .  A
C1408      C1812   1.483       .  S
O1409      C1414   1.267       .  A
O1410      C1412   1.265       .  A
C1411      O1413   1.259       .  A
C1411      C1833   1.481       .  S
C1412      C1800   1.471       .  S
C1414      C1785   1.483       .  S
Fe1415     O1431   2.022       .  S
Fe1415     O1421   2.075   1_565  S
Fe1415     O1428   2.090       .  S
Fe1415     O1420   2.018       .  S
Fe1415     O1426   1.954       .  S
Fe1416     O1419   2.023       .  S
Fe1416     O1423   2.115       .  S
Fe1416     O1427   2.061       .  S
Fe1416     O1432   2.107       .  S
Fe1416     O1426   1.954       .  S
Fe1417     O1435   2.113       .  S
Fe1417     O1422   2.029       .  S
Fe1417     O1429   2.051       .  S
Fe1417     O1418   2.116       .  S
Fe1417     O1426   1.943       .  S
O1418      C1425   1.288       .  A
O1419      C1433   1.262       .  A
O1420      C1425   1.271       .  A
O1421      C1424   1.263   1_545  A
O1422      C1434   1.261       .  A
O1423      C1436   1.285       .  A
C1424      O1429   1.258       .  A
C1425      C1764   1.461       .  S
O1427      C1430   1.265       .  A
O1428      C1430   1.268       .  A
C1430      C1725   1.491       .  S
O1431      C1436   1.266       .  A
O1432      C1434   1.277       .  A
C1433      O1435   1.282       .  A
C1433      C1797   1.470       .  S
C1434      C1737   1.489       .  S
C1436      C1773   1.486       .  S
Fe1437     O1453   2.111       .  S
Fe1437     O1443   2.028       .  S
Fe1437     O1448   1.936       .  S
Fe1438     O1441   2.121       .  S
Fe1438     O1445   2.055       .  S
Fe1438     O1449   2.094       .  S
Fe1438     O1454   2.026       .  S
Fe1438     O1448   1.946       .  S
Fe1439     O1457   2.027       .  S
Fe1439     O1444   2.134       .  S
Fe1439     O1451   2.111       .  S
Fe1439     O1448   1.933       .  S
O1440      C1447   1.263   1_545  A
O1441      C1455   1.276       .  A
O1442      C1447   1.276       .  A
O1443      C1446   1.267       .  A
O1444      C1456   1.285       .  A
O1445      C1458   1.270       .  A
C1446      O1451   1.281       .  A
C1446      C1776   1.469       .  S
C1447      C1836   1.475       .  S
O1449      C1452   1.276       .  A
O1453      C1458   1.280       .  A
O1454      C1456   1.263       .  A
C1455      O1457   1.258       .  A
C1455      C1848   1.499       .  S
C1456      C1716   1.475       .  S
C1458      C1701   1.500       .  S
Fe1459     O1475   2.025       .  S
Fe1459     O1465   2.103       .  S
Fe1459     O1472   2.115       .  S
Fe1459     O1464   2.021       .  S
Fe1459     O1470   1.933       .  S
Fe1460     O1463   2.018       .  S
Fe1460     O1467   2.090       .  S
Fe1460     O1471   2.043       .  S
Fe1460     O1476   2.111       .  S
Fe1460     O1470   1.946       .  S
Fe1461     O1479   2.142       .  S
Fe1461     O1466   2.025       .  S
Fe1461     O1473   2.047       .  S
Fe1461     O1462   2.107       .  S
Fe1461     O1470   1.927       .  S
O1462      C1469   1.281       .  A
O1463      C1477   1.264       .  A
O1464      C1469   1.264       .  A
O1465      C1468   1.277       .  A
O1466      C1478   1.252       .  A
O1467      C1480   1.274       .  A
C1468      O1473   1.264       .  A
C1468      C1740   1.482       .  S
C1469      C1809   1.462       .  S
O1471      C1474   1.270       .  A
O1472      C1474   1.281       .  A
C1474      C1689   1.485       .  S
O1475      C1480   1.263       .  A
O1476      C1478   1.274       .  A
C1477      O1479   1.287       .  A
C1477      C1713   1.474       .  S
C1478      C1752   1.492       .  S
C1480      C1824   1.466       .  S
Fe1481     O1497   2.108       .  S
Fe1481     O1487   2.006       .  S
Fe1481     O1494   2.018       .  S
Fe1481     O1486   2.104       .  S
Fe1481     O1492   1.923       .  S
Fe1482     O1485   2.120       .  S
Fe1482     O1489   2.048       .  S
Fe1482     O1493   2.098       .  S
Fe1482     O1498   2.006       .  S
Fe1482     O1492   1.936       .  S
Fe1483     O1501   2.031       .  S
Fe1483     O1488   2.149       .  S
Fe1483     O1495   2.111       .  S
Fe1483     O1484   2.059       .  S
Fe1483     O1492   1.919       .  S
O1484      C1491   1.267       .  A
O1485      C1499   1.273       .  A
O1486      C1491   1.276       .  A
O1487      C1490   1.264       .  A
O1488      C1500   1.290       .  A
O1489      C1502   1.269       .  A
C1490      O1495   1.282       .  A
C1490      C1656   1.479       .  S
C1491      C1677   1.483       .  S
O1493      C1496   1.277       .  A
O1494      C1496   1.263       .  A
C1496      C1641   1.460       .  S
O1497      C1502   1.278       .  A
O1498      C1500   1.264       .  A
C1499      O1501   1.256       .  A
C1499      C1668   1.500       .  S
C1500      C1629   1.487       .  S
C1502      C1788   1.479       .  S
Fe1503     O1519   2.026       .  S
Fe1503     O1509   2.101   1_565  S
Fe1503     O1516   2.109       .  S
Fe1503     O1508   2.012       .  S
Fe1503     O1514   1.936       .  S
Fe1504     O1507   2.012       .  S
Fe1504     O1511   2.100       .  S
Fe1504     O1515   2.053       .  S
Fe1504     O1520   2.112       .  S
Fe1504     O1514   1.938       .  S
Fe1505     O1523   2.135       .  S
Fe1505     O1510   2.030       .  S
Fe1505     O1517   2.058       .  S
Fe1505     O1506   2.122       .  S
Fe1505     O1514   1.925       .  S
O1506      C1513   1.285       .  A
O1507      C1521   1.263       .  A
O1508      C1513   1.268       .  A
O1509      C1512   1.272   1_545  A
O1510      C1522   1.261       .  A
O1511      C1524   1.279       .  A
C1512      O1517   1.263       .  A
C1513      C1605   1.471       .  S
O1515      C1518   1.267       .  A
O1516      C1518   1.277       .  A
C1518      C1728   1.492       .  S
O1519      C1524   1.265       .  A
O1520      C1522   1.275       .  A
C1521      O1523   1.287       .  A
C1521      C1632   1.483       .  S
C1522      C1581   1.498       .  S
C1524      C1620   1.464       .  S
Fe1525     O1541   2.016       .  S
Fe1525     O1531   2.085       .  S
Fe1525     O1538   2.093       .  S
Fe1525     O1530   2.012       .  S
Fe1525     O1536   1.939       .  S
Fe1526     O1529   2.023       .  S
Fe1526     O1533   2.090       .  S
Fe1526     O1537   2.062       .  S
Fe1526     O1542   2.105       .  S
Fe1526     O1536   1.944       .  S
Fe1527     O1545   2.122       .  S
Fe1527     O1532   2.038       .  S
Fe1527     O1539   2.055       .  S
Fe1527     O1528   2.101       .  S
Fe1527     O1536   1.936       .  S
O1528      C1535   1.281       .  A
O1529      C1543   1.266       .  A
O1530      C1535   1.266       .  A
O1531      C1534   1.271       .  A
O1532      C1544   1.259       .  A
O1533      C1546   1.274       .  A
C1534      O1539   1.264       .  A
C1534      C1584   1.477       .  S
C1535      C1644   1.469       .  S
O1537      C1540   1.271       .  A
O1538      C1540   1.275       .  A
C1540      C1692   1.486       .  S
O1541      C1546   1.263       .  A
O1542      C1544   1.274       .  A
C1543      O1545   1.284       .  A
C1543      C1572   1.485       .  S
C1544      C1596   1.486       .  S
C1546      C1653   1.479       .  S
Fe1547     O1563   2.101       .  S
Fe1547     O1553   2.018       .  S
Fe1547     O1558   1.942       .  S
Fe1548     O1551   2.120       .  S
Fe1548     O1555   2.065       .  S
Fe1548     O1559   2.103       .  S
Fe1548     O1564   2.018       .  S
Fe1548     O1558   1.944       .  S
Fe1549     O1567   2.027       .  S
Fe1549     O1554   2.121       .  S
Fe1549     O1561   2.109       .  S
Fe1549     O1558   1.935       .  S
O1550      C1557   1.261   1_545  A
O1551      C1565   1.278       .  A
O1552      C1557   1.266       .  A
O1553      C1556   1.267       .  A
O1554      C1566   1.283       .  A
O1555      C1568   1.271       .  A
C1556      O1561   1.284       .  A
C1556      C1617   1.477       .  S
C1557      C1665   1.476       .  S
O1559      C1562   1.280       .  A
O1563      C1568   1.274       .  A
O1564      C1566   1.264       .  A
C1565      O1567   1.259       .  A
C1565      C1680   1.493       .  S
C1566      C1569   1.484       .  S
C1568      C1704   1.502       .  S
C1569      C1570   1.411       .  A
C1569      C1574   1.410       .  A
C1570      C1571   1.399       .  A
C1570      H1579   1.085       .  S
C1571      C1572   1.410       .  A
C1571      S1575   1.800       .  S
C1572      C1573   1.412       .  A
C1573      C1574   1.400       .  A
C1573      H1580   1.084       .  S
C1574      S1576   1.800       .  S
S1575      H1578   1.407       .  S
S1576      H1577   1.407       .  S
C1581      C1582   1.413       .  A
C1581      C1586   1.419       .  A
C1582      C1583   1.397       .  A
C1582      H1591   1.084       .  S
C1583      C1584   1.405       .  A
C1583      S1587   1.802       .  S
C1584      C1585   1.404       .  A
C1585      C1586   1.409       .  A
C1585      H1592   1.082       .  S
C1586      S1588   1.807       .  S
S1587      H1590   1.406       .  S
S1588      H1589   1.407       .  S
C1593      C1594   1.401       .  A
C1593      C1598   1.412       .  A
C1594      C1595   1.405       .  A
C1594      H1603   1.082       .  S
C1595      C1596   1.418       .  A
C1595      S1599   1.803       .  S
C1596      C1597   1.405       .  A
C1597      C1598   1.401       .  A
C1597      H1604   1.084       .  S
C1598      S1600   1.800       .  S
S1599      H1602   1.408       .  S
S1600      H1601   1.406       .  S
C1605      C1606   1.403   1_565  A
C1605      C1610   1.407       .  A
C1607      S1611   1.804       .  S
C1608      C1609   1.413       .  A
C1609      C1610   1.399       .  A
C1609      H1616   1.084       .  S
C1610      S1612   1.801       .  S
S1611      H1614   1.408       .  S
S1612      H1613   1.406       .  S
C1617      C1618   1.401       .  A
C1618      H1627   1.084       .  S
C1619      C1620   1.417       .  A
C1621      C1622   1.395   1_565  A
C1621      H1628   1.084   1_556  S
C1622      S1624   1.804       .  S
S1624      H1625   1.408       .  S
C1629      C1630   1.412       .  A
C1629      C1634   1.411       .  A
C1630      H1639   1.085   1_556  S
C1631      C1632   1.410       .  A
C1631      S1635   1.802       .  S
C1633      C1634   1.403       .  A
C1634      S1636   1.800       .  S
S1635      H1638   1.402       .  S
S1636      H1637   1.406       .  S
C1641      C1642   1.403       .  A
C1641      C1646   1.405   1_556  A
C1642      H1651   1.085       .  S
C1643      C1644   1.410       .  A
C1643      S1647   1.802       .  S
C1644      C1645   1.410       .  A
C1645      H1652   1.084       .  S
C1646      S1648   1.805   1_554  S
S1647      H1650   1.407       .  S
S1648      H1649   1.407       .  S
C1653      C1654   1.410       .  A
C1653      C1658   1.410       .  A
C1654      C1655   1.394       .  A
C1654      H1663   1.081       .  S
C1655      C1656   1.409       .  A
C1655      S1659   1.801       .  S
C1656      C1657   1.411       .  A
C1657      C1658   1.391       .  A
C1657      H1664   1.083       .  S
C1658      S1660   1.804       .  S
S1659      H1662   1.407       .  S
S1660      H1661   1.408       .  S
C1665      C1666   1.405       .  A
C1665      C1670   1.405       .  A
C1666      C1667   1.407       .  A
C1666      H1675   1.084       .  S
C1667      C1668   1.419       .  A
C1667      S1671   1.800       .  S
C1668      C1669   1.415       .  A
C1669      C1670   1.397       .  A
C1669      H1676   1.083       .  S
C1670      S1672   1.805       .  S
S1671      H1674   1.407       .  S
S1672      H1673   1.406       .  S
C1677      C1678   1.399       .  A
C1677      C1682   1.415       .  A
C1678      C1679   1.403       .  A
C1678      H1687   1.084       .  S
C1679      C1680   1.422       .  A
C1679      S1683   1.804       .  S
C1680      C1681   1.406       .  A
C1681      C1682   1.406       .  A
C1681      H1688   1.083       .  S
C1682      S1684   1.800       .  S
S1683      H1686   1.408       .  S
S1684      H1685   1.405       .  S
C1689      C1690   1.407       .  A
C1689      C1694   1.413       .  A
C1690      C1691   1.401   1_655  A
C1690      H1699   1.084       .  S
C1691      C1692   1.413       .  A
C1691      S1695   1.803       .  S
C1692      C1693   1.408       .  A
C1693      C1694   1.402   1_455  A
C1693      H1700   1.084       .  S
C1694      S1696   1.802       .  S
S1695      H1698   1.408       .  S
S1696      H1697   1.407       .  S
C1701      C1702   1.407       .  A
C1701      C1706   1.419       .  A
C1702      C1703   1.403       .  A
C1702      H1711   1.083       .  S
C1703      C1704   1.420       .  A
C1704      C1705   1.409       .  A
C1705      C1706   1.405       .  A
C1705      H1712   1.083       .  S
C1706      S1708   1.803       .  S
S1707      H1710   1.408       .  S
S1708      H1709   1.408       .  S
C1713      C1714   1.403       .  A
C1714      H1723   1.085       .  S
C1715      C1716   1.416   1_554  A
C1716      C1717   1.401       .  A
C1717      C1718   1.401       .  A
C1717      H1724   1.085       .  S
C1718      S1720   1.804       .  S
C1725      C1726   1.406       .  A
C1725      C1730   1.416       .  A
C1726      C1727   1.403       .  A
C1726      H1735   1.084       .  S
C1727      C1728   1.417       .  A
C1727      S1731   1.803       .  S
C1728      C1729   1.407       .  A
C1729      C1730   1.404       .  A
C1729      H1736   1.084       .  S
C1730      S1732   1.802       .  S
S1731      H1734   1.408       .  S
S1732      H1733   1.407       .  S
C1737      C1738   1.403       .  A
C1737      C1742   1.420       .  A
C1738      C1739   1.404       .  A
C1738      H1747   1.084       .  S
C1739      C1740   1.417       .  A
C1739      S1743   1.801       .  S
C1740      C1741   1.399       .  A
C1741      C1742   1.401       .  A
C1741      H1748   1.084       .  S
C1742      S1744   1.802       .  S
S1743      H1746   1.406       .  S
S1744      H1745   1.406       .  S
C1749      C1750   1.394       .  A
C1749      C1754   1.410       .  A
C1750      C1751   1.402       .  A
C1750      H1759   1.083       .  S
C1751      C1752   1.428       .  A
C1751      S1755   1.809       .  S
C1752      C1753   1.405       .  A
C1753      C1754   1.398       .  A
C1753      H1760   1.083       .  S
S1755      H1758   1.406       .  S
S1756      H1757   1.405       .  S
C1761      C1766   1.417       .  A
C1762      H1771   1.083       .  S
C1763      C1764   1.410   1_545  A
C1764      C1765   1.397       .  A
C1765      H1772   1.082       .  S
C1766      S1768   1.803       .  S
S1767      H1770   1.407       .  S
S1768      H1769   1.407       .  S
C1773      C1774   1.405       .  A
C1773      C1778   1.423   1_565  A
C1774      C1775   1.397       .  A
C1774      H1783   1.084       .  S
C1775      S1779   1.804       .  S
C1776      C1777   1.399       .  A
C1777      H1784   1.084       .  S
S1779      H1782   1.407       .  S
C1785      C1786   1.406       .  A
C1785      C1790   1.414       .  A
C1786      C1787   1.399   1_655  A
C1786      H1795   1.084       .  S
C1787      C1788   1.413       .  A
C1787      S1791   1.804       .  S
C1788      C1789   1.405       .  A
C1789      C1790   1.402   1_455  A
C1789      H1796   1.084       .  S
C1790      S1792   1.804       .  S
S1791      H1794   1.407       .  S
S1792      H1793   1.407       .  S
C1797      C1798   1.401       .  A
C1797      C1802   1.414       .  A
C1798      C1799   1.401       .  A
C1798      H1807   1.084       .  S
C1799      C1800   1.416       .  A
C1799      S1803   1.804       .  S
C1800      C1801   1.400       .  A
C1801      C1802   1.400       .  A
C1801      H1808   1.083       .  S
C1802      S1804   1.801       .  S
S1803      H1806   1.407       .  S
S1804      H1805   1.407       .  S
C1809      C1810   1.400       .  A
C1809      C1814   1.407       .  A
C1810      C1811   1.398       .  A
C1810      H1819   1.084       .  S
C1811      C1812   1.419       .  A
C1811      S1815   1.800       .  S
C1812      C1813   1.408       .  A
C1813      C1814   1.395       .  A
C1813      H1820   1.084       .  S
C1814      S1816   1.802       .  S
S1815      H1818   1.407       .  S
S1816      H1817   1.406       .  S
C1821      C1822   1.399       .  A
C1821      C1826   1.413       .  A
C1822      H1831   1.085       .  S
C1823      C1824   1.414       .  A
C1823      S1827   1.804       .  S
C1825      C1826   1.394       .  A
C1825      H1832   1.085       .  S
C1826      S1828   1.805       .  S
S1827      H1830   1.407       .  S
S1828      H1829   1.407       .  S
C1833      C1834   1.411       .  A
C1833      C1838   1.411       .  A
C1834      C1835   1.401       .  A
C1834      H1843   1.083       .  S
C1835      C1836   1.405       .  A
C1835      S1839   1.805       .  S
C1836      C1837   1.406       .  A
C1837      C1838   1.401       .  A
C1837      H1844   1.084       .  S
C1838      S1840   1.800       .  S
S1839      H1842   1.407       .  S
S1840      H1841   1.407       .  S
C1845      C1846   1.410       .  A
C1845      C1850   1.407       .  A
C1846      C1847   1.403       .  A
C1846      H1855   1.084       .  S
C1847      C1848   1.415       .  A
C1847      S1851   1.801       .  S
C1848      C1849   1.416       .  A
C1849      C1850   1.401       .  A
C1849      H1856   1.083       .  S
C1850      S1852   1.804       .  S
S1851      H1854   1.408       .  S
S1852      H1853   1.407       .  S
