geometry optimzed in LAMMPS
_audit_creation_date              2020-12-01 
_audit_creation_method            'lammps2cif' 
_symmetry_space_group_name_H-M    'P1' 
_symmetry_Int_Tables_number       1 
_symmetry_cell_setting            triclinic 
loop_ 
_symmetry_equiv_pos_as_xyz 
  x,y,z 
_cell_length_a                    41.62762903 
_cell_length_b                    32.386331604702534 
_cell_length_c                    42.637883781540246 
_cell_angle_alpha                 90.46753772027087 
_cell_angle_beta                  89.81946908761591 
_cell_angle_gamma                 90.41950899197737 
loop_ 
_atom_site_label 
_atom_site_type_symbol 
_atom_site_fract_x 
_atom_site_fract_y 
_atom_site_fract_z 
_atom_site_charge 
O1          O  0.46776829  0.63388214  0.45238031    -0.85500
O2          O  0.47712613  0.70968401  0.47831206    -0.82600
C3          C  0.47196543  0.74603158  0.48741190     0.97900
O4          O  0.44347085  0.75792180  0.49243663    -0.82600
O5          O  0.40725572  0.75096963  0.43580653    -0.85200
C6          C  0.38965952  0.73534956  0.41454390     1.02500
O7          O  0.37903607  0.69881706  0.41740535    -0.78000
O8          O  0.43483410  0.65294804  0.41500966    -0.78200
C9          C  0.46235043  0.64127263  0.42361733     1.02400
O10         O  0.42694439  0.61581278  0.00429214    -0.85500
O11         O  0.43909428  0.69212254  0.03180393    -0.82600
C12         C  0.41280408  0.70695489  0.04194413     0.98000
O13         O  0.39113960  0.71725875  0.02315387    -0.82600
O14         O  0.35494965  0.71641089  0.47149925    -0.85200
C15         C  0.34110966  0.68162762  0.47401735     1.02400
O16         O  0.35607404  0.64859785  0.46802611    -0.78000
O17         O  0.40867316  0.59565477  0.45925269    -0.78200
C18         C  0.41564471  0.58560670  0.48699537     1.02400
Cr19       Cr  0.44978515  0.66620151  0.98949850     1.93700
Cr20       Cr  0.40081827  0.73171632  0.47988403     1.93200
Cr21       Cr  0.39614735  0.65115098  0.44218534     1.39100
O22         O  0.41577031  0.68187975  0.47102883    -1.23300
O23         O  0.46563108  0.37071352  0.05877801    -0.85500
O24         O  0.47571870  0.29445938  0.03374819    -0.82600
C25         C  0.47083348  0.25781053  0.02487851     0.97900
O26         O  0.44262635  0.24530465  0.01948853    -0.82600
O27         O  0.40742381  0.25213502  0.07646955    -0.85200
C28         C  0.38950768  0.26756487  0.09751751     1.02500
O29         O  0.37766620  0.30313951  0.09394808    -0.78000
O30         O  0.43169569  0.35347320  0.09629899    -0.78200
C31         C  0.45952275  0.36502959  0.08766670     1.02400
O32         O  0.42499333  0.38987120  0.00515071    -0.85500
O33         O  0.43690296  0.31117006  0.48047797    -0.82600
C34         C  0.41081470  0.29498059  0.47084321     0.98000
O35         O  0.39079453  0.27980613  0.48968494    -0.82600
O36         O  0.35443446  0.28203257  0.04118216    -0.85200
C37         C  0.34005267  0.31512779  0.03509178     1.02400
O38         O  0.35321998  0.34959258  0.04169506    -0.78000
O39         O  0.40435139  0.40662437  0.05051339    -0.78200
C40         C  0.41306138  0.41665850  0.02319831     1.02400
Cr41       Cr  0.44827432  0.34078060  0.02073964     1.93700
Cr42       Cr  0.40024739  0.26983939  0.03226100     1.93200
Cr43       Cr  0.39318817  0.35112078  0.06845544     1.39100
O44         O  0.41420748  0.32065135  0.04048491    -1.23300
O45         O  0.21371022  0.12920904  0.46015551    -0.85500
O46         O  0.22660746  0.20479454  0.48467300    -0.82600
C47         C  0.22308629  0.24193786  0.49259073     0.97900
O48         O  0.19558693  0.25505065  0.49968353    -0.82600
O49         O  0.15995532  0.24919003  0.44410358    -0.85200
C50         C  0.14120111  0.23517800  0.42327255     1.02500
O51         O  0.12763362  0.20032585  0.42669099    -0.78000
O52         O  0.17986946  0.14803314  0.42347606    -0.78200
C53         C  0.20762859  0.13604103  0.43148232     1.02400
O54         O  0.17839781  0.11085732  0.01384517    -0.85500
O55         O  0.19027900  0.18697997  0.04185345    -0.82600
C56         C  0.16459464  0.20277648  0.05255515     0.98000
O57         O  0.14359512  0.21668090  0.03438516    -0.82600
O58         O  0.10624097  0.22148300  0.47970748    -0.85200
C59         C  0.09072199  0.18931137  0.48675102     1.02400
O60         O  0.10211444  0.15425179  0.47953905    -0.78000
O61         O  0.15076934  0.09546302  0.46982499    -0.78200
C62         C  0.16080894  0.08502773  0.49651929     1.02400
Cr63       Cr  0.19980786  0.16219013  0.99905463     1.93700
Cr64       Cr  0.15238165  0.23200580  0.48815060     1.93200
Cr65       Cr  0.14164742  0.15142207  0.45197868     1.39100
O66         O  0.16422462  0.18075094  0.47971507    -1.23300
O67         O  0.23247108  0.82969074  0.04651087    -0.85500
O68         O  0.22461489  0.77480990  0.99669522    -0.82600
C69         C  0.22195563  0.74019177  0.01004028     0.97900
O70         O  0.19796465  0.73246472  0.02732109    -0.82600
O71         O  0.13942528  0.74468988  0.05928793    -0.85200
C72         C  0.14645505  0.75892030  0.08600446     1.02500
O73         O  0.15885696  0.79425229  0.08897156    -0.78000
O74         O  0.19603285  0.86128821  0.07542201    -0.78200
C75         C  0.22473268  0.84872823  0.07150189     1.02400
O76         O  0.19655702  0.89010737  0.01429845    -0.85500
O77         O  0.17669192  0.83551792  0.46960508    -0.82600
C78         C  0.16640442  0.80172421  0.45798476     0.98000
O79         O  0.16852348  0.76897250  0.47371779    -0.82600
O80         O  0.11538828  0.78434632  0.00484530    -0.85200
C81         C  0.09693458  0.80408413  0.02280815     1.02400
O82         O  0.10785365  0.82157697  0.04745329    -0.78000
O83         O  0.14700468  0.88827345  0.03104749    -0.78200
C84         C  0.17036449  0.90827029  0.01972243     1.02400
Cr85       Cr  0.20605726  0.82997112  0.00768123     1.93700
Cr86       Cr  0.15680527  0.76060920  0.01713036     1.93200
Cr87       Cr  0.15377586  0.83916222  0.05827500     1.39100
O88         O  0.17220592  0.80992638  0.02801976    -1.23300
O89         O  0.05799270  0.36773905  0.21183596    -0.85500
O90         O  0.04539820  0.29665906  0.24264748    -0.82600
C91         C  0.04932652  0.25906997  0.24869299     0.97900
O92         O  0.07710726  0.24434275  0.25132367    -0.82600
O93         O  0.11400035  0.24905023  0.19551620    -0.85200
C94         C  0.13339727  0.26292869  0.17517884     1.02500
O95         O  0.14632099  0.29786038  0.17942681    -0.78000
O96         O  0.09131772  0.34540004  0.17507309    -0.78200
C97         C  0.06376809  0.35836349  0.18323748     1.02400
O98         O  0.10096649  0.39249332  0.26386540    -0.85500
O99         O  0.08645426  0.31999104  0.29429350    -0.82600
C100        C  0.11060073  0.29965389  0.30341316     0.98000
O101        O  0.12884038  0.28168489  0.28418312    -0.82600
O102        O  0.16635159  0.28056623  0.23283971    -0.85200
C103        C  0.18056640  0.31420110  0.23927955     1.02400
O104        O  0.16855304  0.34822219  0.23069649    -0.78000
O105        O  0.11838516  0.40383356  0.21676399    -0.78200
C106        C  0.11170267  0.41720581  0.24371378     1.02400
Cr107      Cr  0.07541414  0.34253309  0.25162782     1.93700
Cr108      Cr  0.12026442  0.26780923  0.24008443     1.93200
Cr109      Cr  0.12960949  0.34681306  0.20281488     1.39100
O110        O  0.10794098  0.31886347  0.23172094    -1.23300
O111        O  0.05910669  0.64279808  0.30125723    -0.85500
O112        O  0.04887864  0.71482203  0.27057285    -0.82600
C113        C  0.05394224  0.75046824  0.26003930     0.97900
O114        O  0.08203572  0.76230038  0.25377528    -0.82600
O115        O  0.11417998  0.76497605  0.31208353    -0.85200
C116        C  0.12973812  0.75197782  0.33545130     1.02500
O117        O  0.14381544  0.71741764  0.33423595    -0.78000
O118        O  0.09229133  0.66440567  0.33826990    -0.78200
C119        C  0.06500703  0.65070621  0.32994813     1.02400
O120        O  0.10169512  0.61683216  0.25051342    -0.85500
O121        O  0.08914905  0.68843835  0.21844617    -0.82600
C122        C  0.11537385  0.70416605  0.20875884     0.98000
O123        O  0.13495491  0.72024102  0.22779654    -0.82600
O124        O  0.16900548  0.73215465  0.28180734    -0.85200
C125        C  0.18425890  0.69936834  0.27687898     1.02400
O126        O  0.17199258  0.66526023  0.28527842    -0.78000
O127        O  0.12229624  0.60753637  0.29688934    -0.78200
C128        C  0.11370323  0.59324444  0.27060830     1.02400
Cr129      Cr  0.07736277  0.66747828  0.26170649     1.93700
Cr130      Cr  0.12378315  0.74113472  0.26979492     1.93200
Cr131      Cr  0.13129117  0.66550088  0.31124810     1.39100
O132        O  0.11034615  0.69127330  0.28102005    -1.23300
O133        O  0.30503593  0.13632018  0.30954234    -0.85500
O134        O  0.29339379  0.21167380  0.28510003    -0.82600
C135        C  0.29758146  0.24914542  0.27851106     0.97900
O136        O  0.32522436  0.26244539  0.27179817    -0.82600
O137        O  0.36114522  0.25674629  0.32686202    -0.85200
C138        C  0.37932479  0.24202367  0.34755069     1.02500
O139        O  0.39211078  0.20711858  0.34354934    -0.78000
O140        O  0.33813016  0.15624135  0.34702276    -0.78200
C141        C  0.31067903  0.14308717  0.33841399     1.02400
O142        O  0.34581269  0.11736068  0.25569528    -0.85500
O143        O  0.33095883  0.19236467  0.22940243    -0.82600
C144        C  0.35661936  0.20933069  0.21960002     0.98000
O145        O  0.37668833  0.22437421  0.23852820    -0.82600
O146        O  0.41410284  0.22763378  0.29014599    -0.85200
C147        C  0.42873758  0.19456890  0.28403885     1.02400
O148        O  0.41619670  0.16005374  0.29129219    -0.78000
O149        O  0.36584156  0.10251216  0.30138535    -0.78200
C150        C  0.35779301  0.09143433  0.27408641     1.02400
Cr151      Cr  0.32147980  0.16608254  0.27135113     1.93700
Cr152      Cr  0.36804119  0.23886466  0.28259675     1.93200
Cr153      Cr  0.37658670  0.15852734  0.31867074     1.39100
O154        O  0.35511917  0.18776438  0.29077763    -1.23300
O155        O  0.31211765  0.86941030  0.19938465    -0.85500
O156        O  0.30109395  0.79460590  0.22451946    -0.82600
C157        C  0.30464747  0.75839006  0.23410408     0.97900
O158        O  0.33216218  0.74619720  0.24163750    -0.82600
O159        O  0.36938875  0.75348559  0.18651512    -0.85200
C160        C  0.38808038  0.76832948  0.16599764     1.02500
O161        O  0.40203702  0.80265786  0.17066596    -0.78000
O162        O  0.34920421  0.85159814  0.16510478    -0.78200
C163        C  0.32064687  0.86214925  0.17112228     1.02400
O164        O  0.34895131  0.89190593  0.25589878    -0.85500
O165        O  0.33534496  0.81608979  0.28218193    -0.82600
C166        C  0.36067218  0.79971967  0.29314119     0.98000
O167        O  0.38217984  0.78613355  0.27508232    -0.82600
O168        O  0.42144645  0.78329051  0.22424480    -0.85200
C169        C  0.43619315  0.81656071  0.23035871     1.02400
O170        O  0.42362922  0.85096456  0.22376575    -0.78000
O171        O  0.37325367  0.90716356  0.21201669    -0.78200
C172        C  0.36225034  0.91812753  0.23842812     1.02400
Cr173      Cr  0.32715163  0.84165076  0.23930829     1.93700
Cr174      Cr  0.37515908  0.77105669  0.23092820     1.93200
Cr175      Cr  0.38542259  0.85126545  0.19512532     1.39100
O176        O  0.36249083  0.82168284  0.22212479    -1.23300
C177        C  0.36106439  0.01657303  0.28787247    -0.21500
C178        C  0.36091893  0.04732601  0.26471511    -0.09500
C179        C  0.36277552  0.03517152  0.23302715     0.29300
C180        C  0.36427125  0.99322195  0.22483023    -0.21500
C181        C  0.36336693  0.96241953  0.24792589    -0.09500
C182        C  0.36196257  0.97461110  0.27966642     0.29300
F183        F  0.36153839  0.94606659  0.30281104    -0.20100
H184        H  0.35965026  0.02498160  0.31248951     0.17700
H185        H  0.36525519  0.98477546  0.20020440     0.17700
F186        F  0.36327900  0.06377560  0.20994254    -0.20000
C187        C  0.24384990  0.68621484  0.27209597    -0.21500
C188        C  0.21547590  0.70365188  0.26058366    -0.09500
C189        C  0.21766172  0.73272844  0.23625399     0.29300
C190        C  0.24718504  0.74573468  0.22496265    -0.21500
C191        C  0.27558962  0.73256579  0.23894025    -0.09500
C192        C  0.27395162  0.70096321  0.26159308     0.29300
F193        F  0.30101033  0.68726053  0.27565840    -0.20100
H194        H  0.24279276  0.66426345  0.29109403     0.17700
H195        H  0.24759856  0.76962302  0.20730211     0.17700
F196        F  0.19138023  0.75250327  0.22556762    -0.20000
C197        C  0.00141456  0.77876560  0.27569734    -0.21500
C198        C  0.02659909  0.77773289  0.25401881    -0.09500
C199        C  0.02359239  0.79902220  0.22546670     0.29300
C200        C  0.49611967  0.82382594  0.22907568    -0.21500
C201        C  0.46793342  0.81232406  0.24502486    -0.09500
C202        C  0.47016084  0.78578210  0.27085062     0.29300
F203        F  0.44347071  0.77230895  0.28594152    -0.20100
H204        H  0.00335585  0.76268644  0.29778615     0.17700
H205        H  0.49480018  0.84328349  0.20859712     0.17700
F206        F  0.04753307  0.79791413  0.20377442    -0.20000
C207        C  0.26915731  0.31049361  0.25592842    -0.21500
C208        C  0.26925328  0.27627941  0.27623902    -0.09500
C209        C  0.24032357  0.26400039  0.29040424     0.29300
C210        C  0.21153429  0.28059188  0.28040482    -0.21500
C211        C  0.21084027  0.31065953  0.25687605    -0.09500
C212        C  0.23992465  0.32796006  0.24641026     0.29300
F213        F  0.24003051  0.35820443  0.22458391    -0.20100
H214        H  0.29131942  0.32126450  0.24530426     0.17700
H215        H  0.18948623  0.26681047  0.28897203     0.17700
F216        F  0.23947727  0.23317772  0.31180162    -0.20000
C217        C  0.99286056  0.24215602  0.23670635    -0.21500
C218        C  0.02051372  0.23298003  0.25365560    -0.09500
C219        C  0.01855582  0.20369393  0.27796622     0.29300
C220        C  0.48860495  0.18637600  0.28321118    -0.21500
C221        C  0.46028311  0.19905357  0.26849517    -0.09500
C222        C  0.46257665  0.22589142  0.24271538     0.29300
F223        F  0.43602040  0.24025990  0.22841011    -0.20100
H224        H  0.99372094  0.26462396  0.21800473     0.17700
H225        H  0.48737611  0.16661955  0.30356174     0.17700
F226        F  0.04477043  0.19510773  0.29553180    -0.20000
C227        C  0.11447943  0.47670635  0.28185320    -0.21500
C228        C  0.11494662  0.46216704  0.25072853    -0.09500
C229        C  0.11706404  0.49126791  0.22628851     0.29300
C230        C  0.11738424  0.53367328  0.23295814    -0.19900
C231        C  0.11620499  0.54821321  0.26402881    -0.09500
C232        C  0.11533969  0.51917334  0.28852509     0.29300
F233        F  0.11375187  0.53170040  0.31894400    -0.20100
H234        H  0.11297831  0.45517468  0.30109647     0.17700
H235        H  0.11815312  0.55524011  0.21369279     0.17700
F236        F  0.11755030  0.47899370  0.19577114    -0.20000
C237        C  0.28222448  0.84944079  0.09012909    -0.21500
C238        C  0.24950957  0.85646613  0.09644433    -0.09500
C239        C  0.24090068  0.86919808  0.12708799     0.29300
C240        C  0.26417654  0.87268676  0.15087441    -0.21500
C241        C  0.29674727  0.86413925  0.14481735    -0.09500
C242        C  0.30552938  0.85348432  0.11373119     0.29300
F243        F  0.33659434  0.84569235  0.10608316    -0.20100
H244        H  0.28986991  0.84013542  0.06684379     0.17700
H245        H  0.25644918  0.88095765  0.17434573     0.17700
F246        F  0.20977560  0.87681351  0.13454265    -0.20000
C247        C  0.16377091  0.81944134  0.40015662    -0.21500
C248        C  0.15186789  0.79790180  0.42631002    -0.09500
C249        C  0.12799280  0.76735880  0.42153264     0.29300
C250        C  0.11808551  0.75652777  0.39145837    -0.21500
C251        C  0.13192136  0.77514987  0.36523087    -0.09500
C252        C  0.15410916  0.80777360  0.36961506     0.29300
F253        F  0.16847798  0.82564502  0.34448905    -0.20100
H254        H  0.18226745  0.84281103  0.40315388     0.17700
H255        H  0.10140967  0.73092130  0.38854818     0.17700
F256        F  0.11566329  0.74563045  0.44591715    -0.20000
C257        C  0.10688710  0.72557408  0.12195943    -0.21500
C258        C  0.13893089  0.73519883  0.11436104    -0.09500
C259        C  0.16320950  0.72696391  0.13601108     0.29300
C260        C  0.15531528  0.71229667  0.16573117    -0.21500
C261        C  0.12302157  0.70721296  0.17485975    -0.09500
C262        C  0.09884484  0.71186815  0.15215922     0.29300
F263        F  0.06740973  0.70676833  0.15983291    -0.20100
H264        H  0.08790910  0.73169805  0.10535894     0.17700
H265        H  0.17446257  0.70702715  0.18220526     0.17700
F266        F  0.19444935  0.73492722  0.12887974    -0.20000
C267        C  0.13251498  0.01649109  0.50263059    -0.21500
C268        C  0.16612436  0.04002730  0.00332044    -0.09500
C269        C  0.19457861  0.02135232  0.01361815     0.29300
C270        C  0.19566357  0.97862989  0.01857534    -0.21500
C271        C  0.16824838  0.95356787  0.01417804    -0.09500
C272        C  0.13958982  0.97232856  0.00443629     0.29300
F273        F  0.10613103  0.95107506  0.50652944    -0.20100
H274        H  0.11026210  0.03009638  0.49484908     0.17700
H275        H  0.21804881  0.96509557  0.02609447     0.17700
F276        F  0.22178646  0.04415282  0.01759628    -0.20000
C277        C  0.17375042  0.24664335  0.13386006    -0.21500
C278        C  0.14302288  0.23930185  0.14676221    -0.09500
C279        C  0.12149758  0.21360445  0.13030824     0.29300
C280        C  0.12985849  0.19835412  0.10047207    -0.21500
C281        C  0.15957929  0.20869706  0.08662326    -0.09500
C282        C  0.18199870  0.23154095  0.10413747     0.29300
F283        F  0.21072597  0.24249506  0.09139840    -0.20100
H284        H  0.19096782  0.26599110  0.14620276     0.17700
H285        H  0.11258257  0.17982355  0.08759920     0.17700
F286        F  0.09161297  0.20602192  0.14180162    -0.20000
C287        C  0.14944888  0.29291198  0.34722489    -0.21500
C288        C  0.11733202  0.29379463  0.33704743    -0.09500
C289        C  0.09290050  0.28097613  0.35761558     0.29300
C290        C  0.10088517  0.26354164  0.38647758    -0.21500
C291        C  0.13319700  0.25974509  0.39550211    -0.09500
C292        C  0.15739730  0.27612408  0.37627618     0.29300
F293        F  0.18878560  0.27259875  0.38429279    -0.20100
H294        H  0.16856089  0.30340281  0.33195139     0.17700
H295        H  0.08189740  0.25146362  0.40128994     0.17700
F296        F  0.06163700  0.28181486  0.34869688    -0.20000
C297        C  0.22702065  0.13634464  0.37532523    -0.21500
C298        C  0.23383577  0.13167842  0.40738644    -0.09500
C299        C  0.26637264  0.12710580  0.41617435     0.29300
C300        C  0.29117461  0.13001481  0.39376160    -0.21500
C301        C  0.28432010  0.13621342  0.36188798    -0.09500
C302        C  0.25173737  0.13812128  0.35285838     0.29300
F303        F  0.24361759  0.14381674  0.32240283    -0.20100
H304        H  0.20243401  0.13978701  0.36759279     0.17700
H305        H  0.31587285  0.12788896  0.40146096     0.17700
F306        F  0.27451356  0.12136794  0.44661765    -0.20000
C307        C  0.02708542  0.22808218  0.03984595    -0.21500
C308        C  0.49877985  0.23089362  0.01878264    -0.09500
C309        C  0.50029496  0.19501633  0.49960367     0.29300
C310        C  0.03113757  0.17610650  0.49477752    -0.21500
C311        C  0.06001385  0.19564791  0.50369447    -0.09500
C312        C  0.05591092  0.20977821  0.03112515     0.29300
F313        F  0.08214603  0.21804020  0.04871348    -0.20100
H314        H  0.02647589  0.24760841  0.06059345     0.17700
H315        H  0.03141526  0.15113900  0.47773500     0.17700
F316        F  0.47308013  0.18065906  0.48572182    -0.20000
C317        C  0.30966156  0.27499880  0.49275611    -0.21500
C318        C  0.30850353  0.31064028  0.01953858    -0.09500
C319        C  0.27964100  0.32138402  0.03458128     0.29300
C320        C  0.25042932  0.30334850  0.02464319    -0.21500
C321        C  0.25181601  0.26881487  0.49620247    -0.09500
C322        C  0.28109408  0.25697545  0.48256369     0.29300
F323        F  0.28252206  0.22561491  0.46124515    -0.20100
H324        H  0.33185183  0.26210355  0.48418116     0.17700
H325        H  0.22880392  0.30931189  0.03808594     0.17700
F326        F  0.28011679  0.34556812  0.06071295    -0.20000
C327        C  0.00536288  0.36655322  0.16865090    -0.21500
C328        C  0.03768906  0.36202405  0.15928173    -0.09500
C329        C  0.04432824  0.35831121  0.12694202     0.29300
C330        C  0.01942017  0.35881489  0.10489777    -0.21500
C331        C  0.48595329  0.37024256  0.11114391    -0.09500
C332        C  0.47967771  0.37620190  0.14334856     0.29300
F333        F  0.44920243  0.38220009  0.15372327    -0.20100
H334        H  0.49892690  0.37886903  0.18998248     0.17700
H335        H  0.02552490  0.35506207  0.08030927     0.17700
F336        F  0.07488910  0.35347292  0.11643376    -0.20000
C337        C  0.39379858  0.20784754  0.17343494    -0.21500
C338        C  0.36283494  0.21478788  0.18574630    -0.09500
C339        C  0.33973393  0.23339560  0.16678315     0.29300
C340        C  0.34839682  0.24844273  0.13727390    -0.21500
C341        C  0.38000809  0.24435971  0.12585908    -0.09500
C342        C  0.40232881  0.22222315  0.14355646     0.29300
F343        F  0.43293394  0.21740843  0.13315782    -0.20100
H344        H  0.41172763  0.19274193  0.18748328     0.17700
H345        H  0.33068112  0.26492043  0.12381231     0.17700
F346        F  0.30961834  0.24030965  0.17784647    -0.20000
C347        C  0.41986328  0.26548642  0.38597829    -0.21500
C348        C  0.38767272  0.26512538  0.37614178    -0.09500
C349        C  0.36382701  0.28071136  0.39613962     0.29300
C350        C  0.37196530  0.29338841  0.42654389    -0.21500
C351        C  0.40390548  0.29090215  0.43714120    -0.09500
C352        C  0.42804212  0.27857811  0.41617212     0.29300
F353        F  0.45898953  0.27544021  0.42574584    -0.20100
H354        H  0.43853116  0.25342981  0.37073135     0.17700
H355        H  0.35308710  0.30344986  0.44230664     0.17700
F356        F  0.33250219  0.28010577  0.38735454    -0.20000
C357        C  0.02109608  0.63902646  0.40817127    -0.21500
C358        C  0.48880323  0.63746248  0.40010335    -0.09500
C359        C  0.48241113  0.63583701  0.36767748     0.29300
C360        C  0.00669130  0.64631962  0.34457649    -0.21500
C361        C  0.03907925  0.64487025  0.35378012    -0.09500
C362        C  0.04599650  0.64054577  0.38591144     0.29300
F363        F  0.07683330  0.63812320  0.39592446    -0.20100
H364        H  0.02730601  0.63662712  0.43275590     0.17700
H365        H  0.50172589  0.63704005  0.32108133     0.17700
F366        F  0.45177772  0.63357769  0.35693917    -0.20000
C367        C  0.02198542  0.78538999  0.47438296    -0.21500
C368        C  0.50016921  0.77280534  0.49443975    -0.09500
C369        C  0.00834880  0.77951049  0.03047858     0.29300
C370        C  0.03930649  0.79347330  0.03869679    -0.21500
C371        C  0.06202105  0.80285563  0.01533388    -0.09500
C372        C  0.05199078  0.80233576  0.98375493     0.29300
F373        F  0.07434579  0.80822053  0.46043124    -0.20100
H374        H  0.52053024  0.76619101  0.44809726     0.17700
H375        H  0.04631868  0.79356856  0.06314082     0.17700
F376        F  0.98785319  0.76726144  0.05346057    -0.20000
C377        C  0.28526198  0.69585509  0.45974938    -0.21500
C378        C  0.30682929  0.68183774  0.48231461    -0.09500
C379        C  0.29915552  0.68273290  0.01614300     0.29300
C380        C  0.26911403  0.69802826  0.02542868    -0.21500
C381        C  0.24660601  0.70917303  0.00270014    -0.09500
C382        C  0.25610511  0.71327888  0.46884822     0.29300
F383        F  0.23705867  0.72990757  0.44650954    -0.20100
H384        H  0.29229900  0.69689145  0.43533345     0.17700
H385        H  0.26469456  0.70482420  0.04997481     0.17700
F386        F  0.32151042  0.67464740  0.03819924    -0.20000
C387        C  0.41200705  0.51319595  0.97258708    -0.21500
C388        C  0.41296401  0.54493458  0.99533925    -0.09500
C389        C  0.41168903  0.53397654  0.02722654     0.29300
C390        C  0.41056373  0.49233071  0.03595823    -0.21500
C391        C  0.41103513  0.46056841  0.01322923    -0.09500
C392        C  0.41124689  0.47153221  0.98133161     0.29300
F393        F  0.41074570  0.44204963  0.95852437    -0.20100
H394        H  0.41489487  0.51701199  0.44960553     0.17700
H395        H  0.41026551  0.48493412  0.06067689     0.17700
F396        F  0.41155508  0.56343302  0.05005801    -0.20000
C397        C  0.34184604  0.77009580  0.34385482    -0.21500
C398        C  0.36494965  0.79276941  0.32718933    -0.09500
C399        C  0.39470513  0.80147530  0.34160092     0.29300
C400        C  0.40208295  0.78498473  0.37104738    -0.21500
C401        C  0.38003857  0.75916033  0.38644663    -0.09500
C402        C  0.34927857  0.75330856  0.37314998     0.29300
F403        F  0.32668618  0.73017310  0.38802993    -0.20100
H404        H  0.31882525  0.76294016  0.33325018     0.17700
H405        H  0.42568878  0.79044381  0.38092743     0.17700
F406        F  0.41708372  0.82481796  0.32663912    -0.20000
C407        C  0.37554206  0.72061954  0.08651117    -0.21500
C408        C  0.40726907  0.71544641  0.07572984    -0.09500
C409        C  0.43274340  0.72409044  0.09644106     0.29300
C410        C  0.42629997  0.74010917  0.12641880    -0.21500
C411        C  0.39449824  0.74610310  0.13654871    -0.09500
C412        C  0.36911627  0.73521210  0.11668808     0.29300
F413        F  0.33820296  0.74189079  0.12550489    -0.20100
H414        H  0.35544587  0.71521402  0.07100058     0.17700
H415        H  0.44616905  0.74877938  0.14153795     0.17700
F416        F  0.46374641  0.71966387  0.08717323    -0.20000
O417        O  0.46768091  0.63792544  0.95074681    -0.85500
O418        O  0.47609975  0.71427033  0.97679852    -0.82600
C419        C  0.47015517  0.75010490  0.98666178     0.97900
O420        O  0.44153991  0.76077032  0.99231565    -0.82600
O421        O  0.40588582  0.75410061  0.93633516    -0.85200
C422        C  0.38888828  0.73856221  0.91472585     1.02500
O423        O  0.37818353  0.70201738  0.91716728    -0.78000
O424        O  0.43455169  0.65741344  0.91371873    -0.78200
C425        C  0.46204603  0.64532616  0.92200083     1.02400
O426        O  0.42629045  0.61268346  0.50567281    -0.85500
O427        O  0.43870241  0.68861265  0.53277893    -0.82600
C428        C  0.41247312  0.70395550  0.54255105     0.98000
O429        O  0.39168792  0.71626477  0.52350284    -0.82600
O430        O  0.35367173  0.71713169  0.97172526    -0.85200
C431        C  0.34086332  0.68165786  0.97423478     1.02400
O432        O  0.35647554  0.64958236  0.96718475    -0.78000
O433        O  0.40955515  0.59890930  0.95770205    -0.78200
C434        C  0.41624019  0.58884268  0.98550631     1.02400
Cr435      Cr  0.44974370  0.66255191  0.49079279     1.93700
Cr436      Cr  0.39947001  0.73378143  0.97985121     1.93200
Cr437      Cr  0.39611831  0.65415322  0.94113539     1.39100
O438        O  0.41532304  0.68476160  0.97025460    -1.23300
O439        O  0.46472281  0.36525793  0.56147061    -0.85500
O440        O  0.47443756  0.29029357  0.53545541    -0.82600
C441        C  0.47015999  0.25343112  0.52694270     0.97900
O442        O  0.44219463  0.24048103  0.52105444    -0.82600
O443        O  0.40645631  0.24853258  0.57740715    -0.85200
C444        C  0.38780921  0.26378416  0.59784205     1.02500
O445        O  0.37556753  0.29900877  0.59389355    -0.78000
O446        O  0.42981988  0.34814227  0.59813696    -0.78200
C447        C  0.45816910  0.35853810  0.59018852     1.02400
O448        O  0.42497702  0.38645019  0.50715416    -0.85500
O449        O  0.43772899  0.31388182  0.97911956    -0.82600
C450        C  0.41153527  0.29804177  0.96952918     0.98000
O451        O  0.39089674  0.28447696  0.98852934    -0.82600
O452        O  0.35404506  0.27823270  0.54163561    -0.85200
C453        C  0.34014114  0.31105424  0.53396589     1.02400
O454        O  0.35277988  0.34573921  0.54106930    -0.78000
O455        O  0.40378646  0.40290865  0.55222374    -0.78200
C456        C  0.41298084  0.41321120  0.52512179     1.02400
Cr457      Cr  0.44759069  0.33682375  0.52254678     1.93700
Cr458      Cr  0.39974151  0.26555474  0.53328047     1.93200
Cr459      Cr  0.39190077  0.34698383  0.56922331     1.39100
O460        O  0.41337655  0.31654938  0.54159617    -1.23300
O461        O  0.21604109  0.13430369  0.95997327    -0.85500
O462        O  0.22650454  0.20991380  0.98611035    -0.82600
C463        C  0.22175108  0.24653023  0.99487903     0.97900
O464        O  0.19367197  0.25817558  0.00146321    -0.82600
O465        O  0.15616339  0.25164539  0.94620670    -0.85200
C466        C  0.13781247  0.23657625  0.92533859     1.02500
O467        O  0.12632891  0.20050873  0.92859457    -0.78000
O468        O  0.18103488  0.15195114  0.92396842    -0.78200
C469        C  0.20908281  0.14058859  0.93147307     1.02400
O470        O  0.17389562  0.11122187  0.51439026    -0.85500
O471        O  0.18887336  0.18657389  0.54106715    -0.82600
C472        C  0.16321496  0.20337973  0.55106944     0.98000
O473        O  0.14321913  0.21780843  0.53206302    -0.82600
O474        O  0.10489147  0.21885640  0.98349050    -0.85200
C475        C  0.09064411  0.18493388  0.98819123     1.02400
O476        O  0.10390236  0.15123136  0.98043306    -0.78000
O477        O  0.15475702  0.09605741  0.96937321    -0.78200
C478        C  0.16587835  0.08471680  0.99544753     1.02400
Cr479      Cr  0.19804094  0.15960053  0.49865843     1.93700
Cr480      Cr  0.15097629  0.23233867  0.99041929     1.93200
Cr481      Cr  0.14315693  0.15207012  0.95284450     1.39100
O482        O  0.16481158  0.18198394  0.98094793    -1.23300
O483        O  0.22937837  0.83460615  0.54791168    -0.85500
O484        O  0.22327073  0.78137353  0.49703734    -0.82600
C485        C  0.22267612  0.74639435  0.50997801     0.97900
O486        O  0.19972818  0.73683129  0.52808937    -0.82600
O487        O  0.14053129  0.74323149  0.56072360    -0.85200
C488        C  0.14481142  0.75822556  0.58778984     1.02500
O489        O  0.15541803  0.79440407  0.59135065    -0.78000
O490        O  0.19231100  0.86221574  0.57863368    -0.78200
C491        C  0.22137577  0.85163466  0.57366307     1.02400
O492        O  0.19172652  0.89354716  0.51747545    -0.85500
O493        O  0.18105878  0.83117825  0.96753478    -0.82600
C494        C  0.16937595  0.79799818  0.95627894     0.98000
O495        O  0.16919519  0.76550423  0.97237674    -0.82600
O496        O  0.11452731  0.78222550  0.50695942    -0.85200
C497        C  0.09557421  0.80264260  0.52396135     1.02400
O498        O  0.10543357  0.82098171  0.54865160    -0.78000
O499        O  0.14255205  0.88931057  0.53459890    -0.78200
C500        C  0.16528080  0.91046005  0.52347842     1.02400
Cr501      Cr  0.20263397  0.83458597  0.50947650     1.93700
Cr502      Cr  0.15699879  0.76172061  0.51869093     1.93200
Cr503      Cr  0.15047554  0.83957978  0.56077623     1.39100
O504        O  0.16998974  0.81192293  0.53013263    -1.23300
O505        O  0.05675755  0.36296954  0.70885533    -0.85500
O506        O  0.04576394  0.28885029  0.73746585    -0.82600
C507        C  0.05059521  0.25287623  0.74729936     0.97900
O508        O  0.07868469  0.24126608  0.75350892    -0.82600
O509        O  0.11567679  0.24387624  0.69754941    -0.85200
C510        C  0.13356944  0.25800009  0.67598640     1.02500
O511        O  0.14603192  0.29350693  0.67879606    -0.78000
O512        O  0.09118567  0.34158894  0.67298683    -0.78200
C513        C  0.06368264  0.35552184  0.68020743     1.02400
O514        O  0.09648836  0.38764754  0.76243279    -0.85500
O515        O  0.08238993  0.31377563  0.79226470    -0.82600
C516        C  0.10783456  0.29785749  0.80320652     0.98000
O517        O  0.12910722  0.28378327  0.78504572    -0.82600
O518        O  0.16732895  0.27876041  0.73358610    -0.85200
C519        C  0.18123930  0.31305253  0.73802952     1.02400
O520        O  0.16807899  0.34611885  0.72920149    -0.78000
O521        O  0.11715663  0.39950439  0.71635240    -0.78200
C522        C  0.10876128  0.41240566  0.74305505     1.02400
Cr523      Cr  0.07312898  0.33676045  0.74886641     1.93700
Cr524      Cr  0.12137598  0.26563791  0.74136723     1.93200
Cr525      Cr  0.12903659  0.34309465  0.70164071     1.39100
O526        O  0.10753689  0.31517926  0.73070441    -1.23300
O527        O  0.05969284  0.63498040  0.80333589    -0.85500
O528        O  0.04952990  0.70867755  0.77487430    -0.82600
C529        C  0.05433480  0.74438860  0.76436889     0.97900
O530        O  0.08212237  0.75549038  0.75628128    -0.82600
O531        O  0.11511353  0.75766570  0.81324689    -0.85200
C532        C  0.13135978  0.74512832  0.83618643     1.02500
O533        O  0.14476392  0.71014303  0.83548993    -0.78000
O534        O  0.09287823  0.65779180  0.83970132    -0.78200
C535        C  0.06561286  0.64347893  0.83194513     1.02400
O536        O  0.10137422  0.61145946  0.75120485    -0.85500
O537        O  0.08775467  0.68419745  0.72048780    -0.82600
C538        C  0.11403261  0.69927733  0.71020514     0.98000
O539        O  0.13467285  0.71337561  0.72901269    -0.82600
O540        O  0.16960701  0.72526461  0.78260126    -0.85200
C541        C  0.18515626  0.69246764  0.77877865     1.02400
O542        O  0.17267877  0.65829139  0.78682808    -0.78000
O543        O  0.12214754  0.60102805  0.79751909    -0.78200
C544        C  0.11315217  0.58744511  0.77112172     1.02400
Cr545      Cr  0.07722811  0.66147430  0.76383652     1.93700
Cr546      Cr  0.12419142  0.73414346  0.77117365     1.93200
Cr547      Cr  0.13179899  0.65850165  0.81254253     1.39100
O548        O  0.11083142  0.68447540  0.78254356    -1.23300
O549        O  0.30434925  0.13506718  0.80850586    -0.85500
O550        O  0.29359675  0.21173622  0.78516587    -0.82600
C551        C  0.29858008  0.24862185  0.77722924     0.97900
O552        O  0.32662519  0.26075361  0.77071858    -0.82600
O553        O  0.36285541  0.25467887  0.82628263    -0.85200
C554        C  0.38079731  0.23916286  0.84691899     1.02500
O555        O  0.39224800  0.20343922  0.84297592    -0.78000
O556        O  0.33794767  0.15405593  0.84575063    -0.78200
C557        C  0.31026497  0.14191960  0.83724469     1.02400
O558        O  0.34429620  0.11619554  0.75411853    -0.85500
O559        O  0.33018664  0.19215644  0.72947786    -0.82600
C560        C  0.35634287  0.20729403  0.71945834     0.98000
O561        O  0.37738430  0.22085262  0.73803819    -0.82600
O562        O  0.41506153  0.22409668  0.78956664    -0.85200
C563        C  0.42958252  0.19069465  0.78436779     1.02400
O564        O  0.41617948  0.15643022  0.79075066    -0.78000
O565        O  0.36472055  0.10020128  0.79948618    -0.78200
C566        C  0.35637457  0.08983823  0.77208886     1.02400
Cr567      Cr  0.32084725  0.16529293  0.77079717     1.93700
Cr568      Cr  0.36911420  0.23625756  0.78193276     1.93200
Cr569      Cr  0.37626691  0.15554825  0.81760918     1.39100
O570        O  0.35518745  0.18564975  0.79006956    -1.23300
O571        O  0.31081697  0.86641585  0.69972907    -0.85500
O572        O  0.30079499  0.79149914  0.72624546    -0.82600
C573        C  0.30493987  0.75618997  0.73748642     0.97900
O574        O  0.33272150  0.74507646  0.74494366    -0.82600
O575        O  0.36764119  0.74895475  0.68781451    -0.85200
C576        C  0.38549876  0.76316422  0.66628372     1.02500
O577        O  0.39904496  0.79817470  0.66941614    -0.78000
O578        O  0.34731295  0.84909008  0.66467929    -0.78200
C579        C  0.31898637  0.86008879  0.67132678     1.02400
O580        O  0.34872863  0.89030314  0.75433354    -0.85500
O581        O  0.33631306  0.81560767  0.78218999    -0.82600
C582        C  0.36224248  0.80078916  0.79294740     0.98000
O583        O  0.38370419  0.78739648  0.77473364    -0.82600
O584        O  0.42088016  0.78026907  0.72216670    -0.85200
C585        C  0.43598163  0.81317605  0.72818403     1.02400
O586        O  0.42360729  0.84761511  0.72139633    -0.78000
O587        O  0.37351334  0.90471701  0.71052968    -0.78200
C588        C  0.36200491  0.91626236  0.73663660     1.02400
Cr589      Cr  0.32691630  0.83953922  0.73929032     1.93700
Cr590      Cr  0.37503879  0.76918831  0.73146130     1.93200
Cr591      Cr  0.38436961  0.84806108  0.69376339     1.39100
O592        O  0.36191129  0.81929848  0.72160919    -1.23300
C593        C  0.35240198  0.01512017  0.78464089    -0.21500
C594        C  0.35897415  0.04584351  0.76244476    -0.09500
C595        C  0.36771844  0.03379100  0.73184149     0.29300
C596        C  0.36979471  0.99167291  0.72382980    -0.21500
C597        C  0.36253963  0.96080943  0.74596188    -0.09500
C598        C  0.35374550  0.97324584  0.77656479     0.29300
F599        F  0.34607234  0.94505532  0.79880396    -0.20100
H600        H  0.34539974  0.02362042  0.80832334     0.17700
H601        H  0.37643429  0.98323363  0.70005138     0.17700
F602        F  0.37477168  0.06262042  0.70989299    -0.20000
C603        C  0.24548049  0.68480121  0.77859111    -0.21500
C604        C  0.21701048  0.69707391  0.76383846    -0.09500
C605        C  0.21912896  0.72350183  0.73784203     0.29300
C606        C  0.24842779  0.73862111  0.72757914    -0.21500
C607        C  0.27656159  0.72981698  0.74378517    -0.09500
C608        C  0.27526712  0.70138105  0.76878677     0.29300
F609        F  0.30204814  0.69273698  0.78551632    -0.20100
H610        H  0.24441139  0.66560067  0.79925520     0.17700
H611        H  0.24863748  0.76036182  0.70837656     0.17700
F612        F  0.19251780  0.73900582  0.72435878    -0.20000
C613        C  0.99994980  0.76717153  0.77905226    -0.21500
C614        C  0.02688188  0.77204956  0.75983283    -0.09500
C615        C  0.02544621  0.79930847  0.73423930     0.29300
C616        C  0.49603147  0.82316493  0.72981288    -0.21500
C617        C  0.46746597  0.80832569  0.74342330    -0.09500
C618        C  0.46937063  0.77932028  0.76774052     0.29300
F619        F  0.44254703  0.76314455  0.78100913    -0.20100
H620        H  0.00061120  0.74671662  0.79902340     0.17700
H621        H  0.49510272  0.84495955  0.71072346     0.17700
F622        F  0.05121172  0.80450023  0.71504426    -0.20000
C623        C  0.27032400  0.30392864  0.74741117    -0.21500
C624        C  0.27094938  0.27642435  0.77287480    -0.09500
C625        C  0.24304377  0.27099173  0.79091492     0.29300
C626        C  0.21427870  0.28860364  0.78141933    -0.21500
C627        C  0.21266001  0.31168303  0.75372597    -0.09500
C628        C  0.24120774  0.32139121  0.73771550     0.29300
F629        F  0.24036833  0.34349075  0.71082687    -0.20100
H630        H  0.29165985  0.30874789  0.73325322     0.17700
H631        H  0.19253959  0.28071360  0.79407540     0.17700
F632        F  0.24299563  0.24598428  0.81631903    -0.20000
C633        C  0.99535472  0.22960490  0.73473269    -0.21500
C634        C  0.02267155  0.22558001  0.75340495    -0.09500
C635        C  0.02099959  0.20036934  0.78024819     0.29300
C636        C  0.48943975  0.18570025  0.78853285    -0.21500
C637        C  0.46205675  0.19454036  0.77073034    -0.09500
C638        C  0.46557161  0.21851604  0.74353536     0.29300
F639        F  0.43966357  0.22951817  0.72654441    -0.20100
H640        H  0.99609044  0.24855046  0.71389973     0.17700
H641        H  0.48709106  0.16864445  0.81018473     0.17700
F642        F  0.04699428  0.19604160  0.79905091    -0.20000
C643        C  0.10528872  0.47172666  0.78108467    -0.21500
C644        C  0.11209411  0.45710237  0.75068829    -0.09500
C645        C  0.12077063  0.48594235  0.72736258     0.29300
C646        C  0.12156833  0.52823945  0.73423482    -0.19900
C647        C  0.11444664  0.54266775  0.76449664    -0.09500
C648        C  0.10658112  0.51401654  0.78800754     0.29300
F649        F  0.09847318  0.52703826  0.81730764    -0.20100
H650        H  0.09843357  0.45049298  0.79944250     0.17700
H651        H  0.12762271  0.54980975  0.71582636     0.17700
F652        F  0.12770053  0.47360889  0.69761252    -0.20000
C653        C  0.27903994  0.85208971  0.59104140    -0.21500
C654        C  0.24649241  0.85896958  0.59824683    -0.09500
C655        C  0.23856155  0.87060160  0.62929737     0.29300
C656        C  0.26237377  0.87278947  0.65261238    -0.21500
C657        C  0.29471068  0.86385156  0.64563666    -0.09500
C658        C  0.30282109  0.85467997  0.61418606     0.29300
F659        F  0.33364588  0.84677386  0.60572868    -0.20100
H660        H  0.28618388  0.84371989  0.56740845     0.17700
H661        H  0.25522676  0.88018817  0.67642499     0.17700
F662        F  0.20766129  0.87830488  0.63758162    -0.20000
C663        C  0.17251561  0.80871484  0.89813165    -0.21500
C664        C  0.15559587  0.79488149  0.92459071    -0.09500
C665        C  0.12756030  0.77079398  0.92041425     0.29300
C666        C  0.11736453  0.75952447  0.89057681    -0.21500
C667        C  0.13561299  0.77026533  0.86441967    -0.09500
C668        C  0.16294040  0.79565861  0.86806938     0.29300
F669        F  0.18190601  0.80438810  0.84299575    -0.20100
H670        H  0.19462760  0.82620652  0.90088364     0.17700
H671        H  0.09687973  0.73889868  0.88811028     0.17700
F672        F  0.11162035  0.75464331  0.94528396    -0.20000
C673        C  0.10408277  0.72900258  0.62485719    -0.21500
C674        C  0.13641182  0.73409072  0.61589096    -0.09500
C675        C  0.16062034  0.72098126  0.63614135     0.29300
C676        C  0.15271630  0.70555738  0.66572105    -0.21500
C677        C  0.12059277  0.70410014  0.67612460    -0.09500
C678        C  0.09612913  0.71416983  0.65483548     0.29300
F679        F  0.06482924  0.71306585  0.66382697    -0.20100
H680        H  0.08510001  0.73909440  0.60946205     0.17700
H681        H  0.17193758  0.69648545  0.68111596     0.17700
F682        F  0.19199735  0.72486397  0.62783193    -0.20000
C683        C  0.13877184  0.01501371  0.99851222    -0.21500
C684        C  0.16033722  0.04108855  0.50563611    -0.09500
C685        C  0.18895259  0.02276307  0.51562210     0.29300
C686        C  0.18997512  0.98050686  0.52162896    -0.21500
C687        C  0.16236678  0.95557415  0.51849125    -0.09500
C688        C  0.13331272  0.97411200  0.50962349     0.29300
F689        F  0.11269706  0.94923516  0.99964474    -0.20100
H690        H  0.11670235  0.02861829  0.99025649     0.17700
H691        H  0.21261140  0.96714374  0.52859977     0.17700
F692        F  0.21644042  0.04540379  0.51800678    -0.20000
C693        C  0.17316727  0.22918821  0.63771528    -0.21500
C694        C  0.14095131  0.23426676  0.64710623    -0.09500
C695        C  0.11646643  0.22397618  0.62593417     0.29300
C696        C  0.12412668  0.21115178  0.59537281    -0.21500
C697        C  0.15632113  0.20852743  0.58518719    -0.09500
C698        C  0.18087973  0.21592535  0.60716054     0.29300
F699        F  0.21222918  0.21354049  0.59852708    -0.20100
H700        H  0.19241812  0.23748173  0.65365601     0.17700
H701        H  0.10472099  0.20485100  0.57920169     0.17700
F702        F  0.08522599  0.22998669  0.63383650    -0.20000
C703        C  0.14308953  0.29931475  0.85061489    -0.21500
C704        C  0.11254297  0.29221557  0.83744363    -0.09500
C705        C  0.08897235  0.27240696  0.85572393     0.29300
C706        C  0.09703679  0.25605862  0.88505184    -0.21500
C707        C  0.12834662  0.26050177  0.89721240    -0.09500
C708        C  0.15079605  0.28430124  0.88045260     0.29300
F709        F  0.18097426  0.29008014  0.89166336    -0.20100
H710        H  0.16152251  0.31489793  0.83710429     0.17700
H711        H  0.07909232  0.23851487  0.89779938     0.17700
F712        F  0.05902918  0.26563786  0.84415051    -0.20000
C713        C  0.22729208  0.14101123  0.87511506    -0.21500
C714        C  0.23460078  0.13566893  0.90698802    -0.09500
C715        C  0.26702987  0.12903703  0.91527246     0.29300
C716        C  0.29135772  0.12995613  0.89245876    -0.21500
C717        C  0.28409036  0.13662677  0.86079870    -0.09500
C718        C  0.25158924  0.14127072  0.85226090     0.29300
F719        F  0.24331309  0.14840871  0.82202461    -0.20100
H720        H  0.20274720  0.14622074  0.86786540     0.17700
H721        H  0.31606859  0.12607991  0.89969194     0.17700
F722        F  0.27562155  0.12312809  0.94557721    -0.20000
C723        C  0.02969152  0.24318715  0.53653836    -0.21500
C724        C  0.49894668  0.22736118  0.52205454    -0.09500
C725        C  0.50033169  0.20475918  0.99213850     0.29300
C726        C  0.03078636  0.18015331  0.98499568    -0.21500
C727        C  0.05856883  0.18747966  0.00279195    -0.09500
C728        C  0.05879912  0.22827503  0.52572936     0.29300
F729        F  0.08570584  0.24904285  0.53454199    -0.20100
H730        H  0.02989213  0.26993948  0.55197919     0.17700
H731        H  0.03239116  0.16393426  0.96273960     0.17700
F732        F  0.47418596  0.19918796  0.97359981    -0.20000
C733        C  0.30719260  0.28495618  0.99285939    -0.21500
C734        C  0.30988636  0.30565788  0.51632459    -0.09500
C735        C  0.28048657  0.32128157  0.52714117     0.29300
C736        C  0.25153288  0.30286415  0.51707611    -0.21500
C737        C  0.24986829  0.27437470  0.99973403    -0.09500
C738        C  0.27833004  0.26732969  0.98283053     0.29300
F739        F  0.27873330  0.24091484  0.95792930    -0.20100
H740        H  0.32909725  0.27559604  0.98118228     0.17700
H741        H  0.22921115  0.31290894  0.52763343     0.17700
F742        F  0.27980434  0.35087843  0.54981192    -0.20000
C743        C  0.00812099  0.37743180  0.66303761    -0.21500
C744        C  0.03895595  0.36273521  0.65511892    -0.09500
C745        C  0.04499754  0.35293779  0.62328805     0.29300
C746        C  0.02048134  0.35552771  0.60074694    -0.21500
C747        C  0.48461607  0.36167828  0.61418419    -0.09500
C748        C  0.47844367  0.36172655  0.64676482     0.29300
F749        F  0.44780437  0.36164418  0.65775498    -0.20100
H750        H  0.49816910  0.36070113  0.69330580     0.17700
H751        H  0.02566889  0.34600709  0.57683822     0.17700
F752        F  0.07428121  0.33931561  0.61394190    -0.20000
C753        C  0.39227958  0.20400412  0.67297820    -0.21500
C754        C  0.36184145  0.21238534  0.68577859    -0.09500
C755        C  0.33861131  0.23163729  0.66738651     0.29300
C756        C  0.34686967  0.24599222  0.63770167    -0.21500
C757        C  0.37821340  0.24084397  0.62592207    -0.09500
C758        C  0.40049271  0.21809653  0.64310208     0.29300
F759        F  0.43087132  0.21265196  0.63227206    -0.20100
H760        H  0.41007585  0.18813991  0.68665684     0.17700
H761        H  0.32923374  0.26299847  0.62452622     0.17700
F762        F  0.30899193  0.23998259  0.67917971    -0.20000
C763        C  0.36810308  0.28589199  0.89233037    -0.21500
C764        C  0.39034142  0.26210668  0.87546349    -0.09500
C765        C  0.42128283  0.25622616  0.88798647     0.29300
C766        C  0.42892417  0.27120521  0.91782023    -0.21500
C767        C  0.40577531  0.29170435  0.93581789    -0.09500
C768        C  0.37567516  0.30038360  0.92249996     0.29300
F769        F  0.35337466  0.32188776  0.93901590    -0.20100
H770        H  0.34431043  0.29105991  0.88300604     0.17700
H771        H  0.45221483  0.26430533  0.92768851     0.17700
F772        F  0.44376293  0.23439072  0.87188159    -0.20000
C773        C  0.02056031  0.64821733  0.91013493    -0.21500
C774        C  0.48814686  0.64059781  0.89813274    -0.09500
C775        C  0.48176823  0.64219268  0.86566520     0.29300
C776        C  0.00890174  0.62384939  0.84826939    -0.21500
C777        C  0.04000649  0.63775165  0.85646882    -0.09500
C778        C  0.04556994  0.64901208  0.88806124     0.29300
F779        F  0.07497488  0.66216813  0.89767265    -0.20100
H780        H  0.02554393  0.65855375  0.93389239     0.17700
H781        H  0.50134434  0.64440431  0.81907655     0.17700
F782        F  0.45119754  0.64493232  0.85493504    -0.20000
C783        C  0.02150190  0.78721092  0.97553843    -0.21500
C784        C  0.49746309  0.77733695  0.99494312    -0.09500
C785        C  0.00636042  0.78275935  0.52902771     0.29300
C786        C  0.03732263  0.79560259  0.53790321    -0.21500
C787        C  0.06117809  0.80184140  0.51509301    -0.09500
C788        C  0.05256553  0.79934212  0.48316468     0.29300
F789        F  0.07231985  0.81461257  0.96067630    -0.20100
H790        H  0.51819925  0.77655092  0.94847626     0.17700
H791        H  0.04332765  0.79724757  0.56258652     0.17700
F792        F  0.98465988  0.77321608  0.55163002    -0.20000
C793        C  0.28314658  0.68573582  0.96173639    -0.21500
C794        C  0.30704322  0.67944905  0.98414323    -0.09500
C795        C  0.29736469  0.68143490  0.51401053     0.29300
C796        C  0.26796802  0.69890278  0.52326929    -0.21500
C797        C  0.24799499  0.71693849  0.50083990    -0.09500
C798        C  0.25292366  0.69997763  0.97095744     0.29300
F799        F  0.23099257  0.70900512  0.94857915    -0.20100
H800        H  0.28879069  0.68328502  0.93698185     0.17700
H801        H  0.26226141  0.70163639  0.54798095     0.17700
F802        F  0.31791481  0.66791916  0.53619954    -0.20000
C803        C  0.41329552  0.50973387  0.47430540    -0.21500
C804        C  0.41282667  0.54162033  0.49692560    -0.09500
C805        C  0.41074265  0.53075918  0.52881543     0.29300
C806        C  0.40968881  0.48909964  0.53767783    -0.21500
C807        C  0.41124702  0.45720998  0.51509428    -0.09500
C808        C  0.41277900  0.46809930  0.48318225     0.29300
F809        F  0.41382310  0.43854911  0.46044814    -0.20100
H810        H  0.41267715  0.52057854  0.94787129     0.17700
H811        H  0.40853199  0.48181030  0.56239289     0.17700
F812        F  0.40967678  0.56034989  0.55151684    -0.20000
C813        C  0.34245324  0.77562006  0.84446561    -0.21500
C814        C  0.36678912  0.79479743  0.82694212    -0.09500
C815        C  0.39717230  0.80111882  0.84072935     0.29300
C816        C  0.40376845  0.78534523  0.87052093    -0.21500
C817        C  0.38030536  0.76257326  0.88667760    -0.09500
C818        C  0.34915556  0.75936772  0.87402237     0.29300
F819        F  0.32550624  0.73912472  0.88977317    -0.20100
H820        H  0.31890875  0.77049151  0.83432764     0.17700
H821        H  0.42775788  0.78861606  0.88003527     0.17700
F822        F  0.42083148  0.82109129  0.82482213    -0.20000
C823        C  0.37439270  0.71188858  0.58754236    -0.21500
C824        C  0.40627679  0.71049072  0.57644656    -0.09500
C825        C  0.43134265  0.72086755  0.59711515     0.29300
C826        C  0.42430266  0.73575570  0.62723252    -0.21500
C827        C  0.39234138  0.73923662  0.63757583    -0.09500
C828        C  0.36742049  0.72556351  0.61799691     0.29300
F829        F  0.33630371  0.72888909  0.62724538    -0.20100
H830        H  0.35466267  0.70421732  0.57209057     0.17700
H831        H  0.44382601  0.74629084  0.64211824     0.17700
F832        F  0.46241864  0.71995838  0.58745542    -0.20000
O833        O  0.96887184  0.63775991  0.45191970    -0.85500
O834        O  0.97730869  0.71283190  0.47928884    -0.82600
C835        C  0.97147894  0.74874244  0.48890183     0.97900
O836        O  0.94286219  0.75988795  0.49405961    -0.82600
O837        O  0.90618692  0.75339590  0.43783053    -0.85200
C838        C  0.88887264  0.73741937  0.41649988     1.02500
O839        O  0.87860000  0.70080003  0.41945528    -0.78000
O840        O  0.93507800  0.65716278  0.41542484    -0.78200
C841        C  0.96284480  0.64566367  0.42332725     1.02400
O842        O  0.92774076  0.61340574  0.00696738    -0.85500
O843        O  0.93839976  0.68909565  0.03448046    -0.82600
C844        C  0.91190972  0.70416982  0.04388143     0.98000
O845        O  0.89164915  0.71711301  0.02453439    -0.82600
O846        O  0.85493797  0.71626175  0.47397237    -0.85200
C847        C  0.84189141  0.68091545  0.47617993     1.02400
O848        O  0.85742850  0.64859614  0.46945980    -0.78000
O849        O  0.91073513  0.59778604  0.45876797    -0.78200
C850        C  0.91784778  0.58724765  0.48631059     1.02400
Cr851      Cr  0.95032450  0.66393389  0.99237790     1.93700
Cr852      Cr  0.90062396  0.73293455  0.48179494     1.93200
Cr853      Cr  0.89693597  0.65325243  0.44307349     1.39100
O854        O  0.91635671  0.68376953  0.47211217    -1.23300
O855        O  0.96826166  0.36454105  0.06144407    -0.85500
O856        O  0.97828256  0.28914014  0.03483022    -0.82600
C857        C  0.97287413  0.25258623  0.02596142     0.97900
O858        O  0.94466795  0.24092721  0.02001292    -0.82600
O859        O  0.90899843  0.24771844  0.07638702    -0.85200
C860        C  0.89049034  0.26292931  0.09698666     1.02500
O861        O  0.87876500  0.29852605  0.09341316    -0.78000
O862        O  0.93284312  0.34791111  0.09784919    -0.78200
C863        C  0.96116800  0.35842659  0.09008055     1.02400
O864        O  0.92927873  0.38696849  0.00730560    -0.85500
O865        O  0.93268956  0.31058461  0.47835558    -0.82600
C866        C  0.90857525  0.28752163  0.47233404     0.98000
O867        O  0.89256931  0.27108559  0.49396717    -0.82600
O868        O  0.85696568  0.27821601  0.04064878    -0.85200
C869        C  0.84266131  0.31126523  0.03450350     1.02400
O870        O  0.85579548  0.34577782  0.04119818    -0.78000
O871        O  0.90713250  0.40265608  0.05220907    -0.78200
C872        C  0.91684944  0.41335211  0.02538250     1.02400
Cr873      Cr  0.95146395  0.33659551  0.02239440     1.93700
Cr874      Cr  0.90270672  0.26599616  0.03238429     1.93200
Cr875      Cr  0.89516390  0.34672143  0.06894842     1.39100
O876        O  0.91677791  0.31656178  0.04119949    -1.23300
O877        O  0.71422200  0.13594520  0.45816675    -0.85500
O878        O  0.72665991  0.21002186  0.48567215    -0.82600
C879        C  0.72304963  0.24676826  0.49459508     0.97900
O880        O  0.69522573  0.25992243  0.50059275    -0.82600
O881        O  0.65905066  0.25570425  0.44413442    -0.85200
C882        C  0.64060850  0.24168560  0.42290007     1.02500
O883        O  0.62731963  0.20666063  0.42605642    -0.78000
O884        O  0.68014112  0.15526585  0.42173063    -0.78200
C885        C  0.70770698  0.14247662  0.42956302     1.02400
O886        O  0.67245077  0.11352709  0.01519949    -0.85500
O887        O  0.68859722  0.18777223  0.04177672    -0.82600
C888        C  0.66260972  0.20329330  0.05171476     0.98000
O889        O  0.64260650  0.21825570  0.03301695    -0.82600
O890        O  0.60569698  0.22554820  0.47983557    -0.85200
C891        C  0.59034910  0.19259669  0.48527245     1.02400
O892        O  0.60238509  0.15812371  0.47744978    -0.78000
O893        O  0.65185639  0.10036182  0.46603044    -0.78200
C894        C  0.66248941  0.08821410  0.49204323     1.02400
Cr895      Cr  0.69779160  0.16117563  0.99991764     1.93700
Cr896      Cr  0.65195676  0.23652855  0.48820783     1.93200
Cr897      Cr  0.64199631  0.15712922  0.45013078     1.39100
O898        O  0.66424340  0.18561688  0.47868033    -1.23300
O899        O  0.72580321  0.83821383  0.04825101    -0.85500
O900        O  0.72031566  0.78502018  0.99767288    -0.82600
C901        C  0.72115391  0.75052453  0.01126565     0.97900
O902        O  0.69888924  0.74077167  0.03016205    -0.82600
O903        O  0.64038849  0.74637527  0.06357405    -0.85200
C904        C  0.64288010  0.76338120  0.09006211     1.02500
O905        O  0.65131707  0.80047339  0.09302893    -0.78000
O906        O  0.68884563  0.86646410  0.07886185    -0.78200
C907        C  0.71772663  0.85465210  0.07416317     1.02400
O908        O  0.68793982  0.89696741  0.01789569    -0.85500
O909        O  0.67934191  0.83288768  0.46769981    -0.82600
C910        C  0.66813380  0.79846485  0.45808740     0.98000
O911        O  0.66974834  0.76678643  0.47518093    -0.82600
O912        O  0.61175144  0.78187268  0.01003903    -0.85200
C913        C  0.59261657  0.80439280  0.02528648     1.02400
O914        O  0.60194648  0.82484602  0.04916512    -0.78000
O915        O  0.63850089  0.89164895  0.03364617    -0.78200
C916        C  0.66109953  0.91319324  0.02307233     1.02400
Cr917      Cr  0.69896377  0.83777471  0.01018267     1.93700
Cr918      Cr  0.65516416  0.76380980  0.02127867     1.93200
Cr919      Cr  0.64682542  0.84367496  0.06121794     1.39100
O920        O  0.66687390  0.81490768  0.03147018    -1.23300
O921        O  0.55672912  0.36930859  0.20878672    -0.85500
O922        O  0.54466559  0.29590462  0.23668719    -0.82600
C923        C  0.54854705  0.25912781  0.24500202     0.97900
O924        O  0.57626395  0.24584717  0.25062649    -0.82600
O925        O  0.61118565  0.24815901  0.19396186    -0.85200
C926        C  0.62981210  0.26150959  0.17281282     1.02500
O927        O  0.64256319  0.29688241  0.17542909    -0.78000
O928        O  0.58956160  0.34742824  0.17164992    -0.78200
C929        C  0.56248250  0.36158736  0.17994793     1.02400
O930        O  0.59890293  0.39131663  0.26122547    -0.85500
O931        O  0.58430243  0.31773776  0.29067075    -0.82600
C932        C  0.60975525  0.30034675  0.30026251     0.98000
O933        O  0.62924603  0.28465720  0.28103516    -0.82600
O934        O  0.66507883  0.27910806  0.22826628    -0.85200
C935        C  0.68020911  0.31238346  0.23318386     1.02400
O936        O  0.66796184  0.34661653  0.22559697    -0.78000
O937        O  0.61820691  0.40336936  0.21464906    -0.78200
C938        C  0.61034140  0.41619097  0.24151801     1.02400
Cr939      Cr  0.57377686  0.34187785  0.24793007     1.93700
Cr940      Cr  0.61915370  0.26832273  0.23759799     1.93200
Cr941      Cr  0.62809980  0.34664644  0.19911022     1.39100
O942        O  0.60670538  0.31900636  0.22831061    -1.23300
O943        O  0.55990984  0.63886361  0.30318059    -0.85500
O944        O  0.55007825  0.71339697  0.27609092    -0.82600
C945        C  0.55484673  0.74922294  0.26575441     0.97900
O946        O  0.58272335  0.76035164  0.25767056    -0.82600
O947        O  0.61691945  0.76071599  0.31378063    -0.85200
C948        C  0.63212005  0.74654961  0.33678378     1.02500
O949        O  0.64580336  0.71182575  0.33511989    -0.78000
O950        O  0.59293947  0.66107595  0.33986550    -0.78200
C951        C  0.56571648  0.64699127  0.33179089     1.02400
O952        O  0.60045311  0.61573105  0.25069415    -0.85500
O953        O  0.58689849  0.68930827  0.22144572    -0.82600
C954        C  0.61323147  0.70355812  0.21095718     0.98000
O955        O  0.63449490  0.71697841  0.22928148    -0.82600
O956        O  0.67082486  0.72655447  0.28162889    -0.85200
C957        C  0.68540309  0.69282754  0.27797425     1.02400
O958        O  0.67203089  0.65937596  0.28626819    -0.78000
O959        O  0.62085758  0.60405371  0.29693537    -0.78200
C960        C  0.61199907  0.59109118  0.27032850     1.02400
Cr961      Cr  0.57698463  0.66592398  0.26418071     1.93700
Cr962      Cr  0.62506256  0.73747528  0.27151056     1.93200
Cr963      Cr  0.63162134  0.66092459  0.31229989     1.39100
O964        O  0.61100002  0.68795838  0.28268210    -1.23300
O965        O  0.80342332  0.13348903  0.30700667    -0.85500
O966        O  0.79251571  0.20932887  0.28264770    -0.82600
C967        C  0.79712927  0.24604489  0.27420708     0.97900
O968        O  0.82509107  0.25872228  0.26815846    -0.82600
O969        O  0.85934087  0.25448582  0.32499278    -0.85200
C970        C  0.87532820  0.23848204  0.34690911     1.02500
O971        O  0.88907551  0.20411673  0.34295862    -0.78000
O972        O  0.83659550  0.15252351  0.34461437    -0.78200
C973        C  0.80908248  0.14018100  0.33581917     1.02400
O974        O  0.84451322  0.11421741  0.25374407    -0.85500
O975        O  0.83073139  0.18974510  0.22782974    -0.82600
C976        C  0.85681337  0.20585075  0.21836248     0.98000
O977        O  0.87719331  0.21992632  0.23745364    -0.82600
O978        O  0.91316464  0.22527449  0.29056870    -0.85200
C979        C  0.92845679  0.19265098  0.28486049     1.02400
O980        O  0.91583499  0.15781655  0.29102674    -0.78000
O981        O  0.86533283  0.09932591  0.29916307    -0.78200
C982        C  0.85647474  0.08819871  0.27206972     1.02400
Cr983      Cr  0.82052813  0.16331211  0.26932513     1.93700
Cr984      Cr  0.86744585  0.23570519  0.28103652     1.93200
Cr985      Cr  0.87533547  0.15540031  0.31719098     1.39100
O986        O  0.85418444  0.18468042  0.28915027    -1.23300
O987        O  0.80794114  0.86253455  0.20058888    -0.85500
O988        O  0.80101305  0.78676226  0.22621720    -0.82600
C989        C  0.80593565  0.75172723  0.23760350     0.97900
O990        O  0.83377543  0.74244209  0.24651170    -0.82600
O991        O  0.86914399  0.74644008  0.19030529    -0.85200
C992        C  0.88546924  0.76117119  0.16794056     1.02500
O993        O  0.89759045  0.79712161  0.16982449    -0.78000
O994        O  0.84357560  0.84435640  0.16515639    -0.78200
C995        C  0.81540185  0.85549092  0.17212289     1.02400
O996        O  0.84555039  0.88792120  0.25497722    -0.85500
O997        O  0.83482638  0.81236614  0.28290978    -0.82600
C998        C  0.86122537  0.79978442  0.29425808     0.98000
O999        O  0.88375794  0.78856070  0.27643522    -0.82600
O1000       O  0.92122850  0.78251467  0.22393396    -0.85200
C1001       C  0.93529617  0.81692961  0.22675683     1.02400
O1002       O  0.92103284  0.84995055  0.21973527    -0.78000
O1003       O  0.86853914  0.90281308  0.21021905    -0.78200
C1004       C  0.85802149  0.91410361  0.23685073     1.02400
Cr1005     Cr  0.82508895  0.83609182  0.23994313     1.93700
Cr1006     Cr  0.87572373  0.76869120  0.23332366     1.93200
Cr1007     Cr  0.88122969  0.84669076  0.19352394     1.39100
O1008       O  0.86069658  0.81756050  0.22244491    -1.23300
C1009       C  0.85425778  0.01322756  0.28576055    -0.21500
C1010       C  0.85842365  0.04385499  0.26287192    -0.09500
C1011       C  0.86319064  0.03145136  0.23152636     0.29300
C1012       C  0.86386203  0.98934851  0.22342212    -0.21500
C1013       C  0.85910582  0.95863133  0.24621805    -0.09500
C1014       C  0.85418103  0.97120020  0.27761050     0.29300
F1015       F  0.84920716  0.94299468  0.30053884    -0.20100
H1016       H  0.85018779  0.02189780  0.31004964     0.17700
H1017       H  0.86749165  0.98080423  0.19905417     0.17700
F1018       F  0.86758937  0.05999338  0.20875907    -0.20000
C1019       C  0.74544895  0.68221486  0.27839338    -0.21500
C1020       C  0.71743583  0.69498446  0.26301588    -0.09500
C1021       C  0.72048997  0.71883375  0.23575697     0.29300
C1022       C  0.75030802  0.73212156  0.22534356    -0.21500
C1023       C  0.77793327  0.72418760  0.24273743    -0.09500
C1024       C  0.77575330  0.69694216  0.26838986     0.29300
F1025       F  0.80216501  0.68800999  0.28556858    -0.20100
H1026       H  0.74368418  0.66429687  0.29966752     0.17700
H1027       H  0.75127398  0.75249699  0.20531229     0.17700
F1028       F  0.69437880  0.73375103  0.22104256    -0.20000
C1029       C  0.49933424  0.76870289  0.27916044    -0.21500
C1030       C  0.52698649  0.77660623  0.26145508    -0.09500
C1031       C  0.52565680  0.80597740  0.23718478     0.29300
C1032       C  0.99433155  0.81768784  0.21775646    -0.21500
C1033       C  0.96826999  0.81569895  0.23867191    -0.09500
C1034       C  0.97264677  0.79777019  0.26821955     0.29300
F1035       F  0.94772313  0.79416477  0.28847204    -0.20100
H1036       H  0.49970662  0.74654418  0.29805374     0.17700
H1037       H  0.99109431  0.83000568  0.19444921     0.17700
F1038       F  0.55195507  0.81419676  0.21933672    -0.20000
C1039       C  0.76925293  0.30069159  0.24347739    -0.21500
C1040       C  0.76929486  0.27296071  0.26882092    -0.09500
C1041       C  0.74085263  0.26646776  0.28575074     0.29300
C1042       C  0.71235094  0.28368843  0.27545578    -0.21500
C1043       C  0.71152559  0.30841375  0.24859080    -0.09500
C1044       C  0.74039350  0.31827127  0.23324458     0.29300
F1045       F  0.74016239  0.34065638  0.20648050    -0.20100
H1046       H  0.79096595  0.30587859  0.22995007     0.17700
H1047       H  0.69030091  0.27432014  0.28682237     0.17700
F1048       F  0.74009965  0.24093497  0.31085762    -0.20000
C1049       C  0.49200840  0.24203486  0.23338609    -0.21500
C1050       C  0.51991351  0.23281046  0.24992435    -0.09500
C1051       C  0.51839375  0.20329782  0.27407228     0.29300
C1052       C  0.98863185  0.18631167  0.28636815    -0.21500
C1053       C  0.96060477  0.19817387  0.27067205    -0.09500
C1054       C  0.96335111  0.22531654  0.24512988     0.29300
F1055       F  0.93700725  0.23886669  0.22993590    -0.20100
H1056       H  0.49255983  0.26441677  0.21461590     0.17700
H1057       H  0.98700300  0.16657474  0.30671161     0.17700
F1058       F  0.54497018  0.19418644  0.29093450    -0.20000
C1059       C  0.61094966  0.47478781  0.28016297    -0.21500
C1060       C  0.61291432  0.46090575  0.24895537    -0.09500
C1061       C  0.61557188  0.49036787  0.22482597     0.29300
C1062       C  0.61563908  0.53259996  0.23191619    -0.19900
C1063       C  0.61355905  0.54639636  0.26309859    -0.09500
C1064       C  0.61141684  0.51702102  0.28725313     0.29300
F1065       F  0.60834146  0.52903818  0.31768778    -0.20100
H1066       H  0.60866675  0.45293177  0.29912793     0.17700
H1067       H  0.61714746  0.55457216  0.21295289     0.17700
F1068       F  0.61696146  0.47859325  0.19422338    -0.20000
C1069       C  0.77512988  0.85230129  0.09175333    -0.21500
C1070       C  0.74266137  0.85942243  0.09917438    -0.09500
C1071       C  0.73460908  0.86770270  0.13075982     0.29300
C1072       C  0.75840664  0.86773962  0.15414726    -0.21500
C1073       C  0.79077721  0.85945443  0.14675285    -0.09500
C1074       C  0.79881522  0.85223247  0.11500446     0.29300
F1075       F  0.82949502  0.84398138  0.10623950    -0.20100
H1076       H  0.78228962  0.84581499  0.06779183     0.17700
H1077       H  0.75125675  0.87310824  0.17825949     0.17700
F1078       F  0.70360773  0.87402213  0.13938203    -0.20000
C1079       C  0.66375763  0.81569566  0.40078317    -0.21500
C1080       C  0.65371080  0.79264667  0.42685666    -0.09500
C1081       C  0.63175315  0.75970945  0.42248073     0.29300
C1082       C  0.62191877  0.74837783  0.39266992    -0.21500
C1083       C  0.63416511  0.76874626  0.36653902    -0.09500
C1084       C  0.65428789  0.80341726  0.37049776     0.29300
F1085       F  0.66704270  0.82273832  0.34518136    -0.20100
H1086       H  0.68072687  0.84093645  0.40361851     0.17700
H1087       H  0.60664617  0.72137104  0.38981898     0.17700
F1088       F  0.62115714  0.73651825  0.44687926    -0.20000
C1089       C  0.60232194  0.74011790  0.12848284    -0.21500
C1090       C  0.63431476  0.74029812  0.11809313    -0.09500
C1091       C  0.65817038  0.72210917  0.13625285     0.29300
C1092       C  0.65027157  0.70579979  0.16544407    -0.21500
C1093       C  0.61877540  0.70873126  0.17719433    -0.09500
C1094       C  0.59447959  0.72442792  0.15797902     0.29300
F1095       F  0.56392108  0.72814274  0.16880074    -0.20100
H1096       H  0.58377834  0.75433125  0.11450716     0.17700
H1097       H  0.66911225  0.69268683  0.17959778     0.17700
F1098       F  0.68924405  0.72216715  0.12648303    -0.20000
C1099       C  0.63789507  0.01702499  0.48980389    -0.21500
C1100       C  0.65657093  0.04371338  0.00678708    -0.09500
C1101       C  0.67837243  0.02727133  0.02851463     0.29300
C1102       C  0.67911831  0.98481980  0.03390837    -0.21500
C1103       C  0.65747241  0.95803234  0.01879400    -0.09500
C1104       C  0.63415160  0.97443566  0.99879372     0.29300
F1105       F  0.61451897  0.94974039  0.48633021    -0.20100
H1106       H  0.61685201  0.02953079  0.47854778     0.17700
H1107       H  0.69700520  0.97266340  0.04969358     0.17700
F1108       F  0.70025619  0.05179306  0.04329772    -0.20000
C1109       C  0.67112832  0.24002193  0.13461236    -0.21500
C1110       C  0.63931146  0.23634745  0.14551670    -0.09500
C1111       C  0.61680548  0.21414948  0.12758489     0.29300
C1112       C  0.62534468  0.19994489  0.09759332    -0.21500
C1113       C  0.65633123  0.20754368  0.08551977    -0.09500
C1114       C  0.67969197  0.22553130  0.10492504     0.29300
F1115       F  0.70987131  0.23289170  0.09405817    -0.20100
H1116       H  0.68897488  0.25650134  0.14839967     0.17700
H1117       H  0.60738444  0.18471305  0.08322847     0.17700
F1118       F  0.58607030  0.20950257  0.13775485    -0.20000
C1119       C  0.64878317  0.29496991  0.34459821    -0.21500
C1120       C  0.61665393  0.29522895  0.33423536    -0.09500
C1121       C  0.59232830  0.28390552  0.35547066     0.29300
C1122       C  0.60038114  0.26891593  0.38521002    -0.21500
C1123       C  0.63269111  0.26574397  0.39456559    -0.09500
C1124       C  0.65683091  0.28023873  0.37438007     0.29300
F1125       F  0.68825441  0.27676159  0.38227254    -0.20100
H1126       H  0.66790966  0.30469199  0.32907474     0.17700
H1127       H  0.58137286  0.25791309  0.40049034     0.17700
F1128       F  0.56103709  0.28398764  0.34662371    -0.20000
C1129       C  0.72591344  0.13932285  0.37322318    -0.21500
C1130       C  0.73320316  0.13608229  0.40528627    -0.09500
C1131       C  0.76559028  0.12996360  0.41386268     0.29300
C1132       C  0.78996962  0.12989568  0.39111693    -0.21500
C1133       C  0.78277764  0.13481219  0.35923115    -0.09500
C1134       C  0.75025537  0.13829024  0.35041612     0.29300
F1135       F  0.74197709  0.14304977  0.31989339    -0.20100
H1136       H  0.70134784  0.14380131  0.36575281     0.17700
H1137       H  0.81468034  0.12683223  0.39858803     0.17700
F1138       F  0.77409918  0.12573697  0.44436338    -0.20000
C1139       C  0.52632828  0.23661170  0.03697903    -0.21500
C1140       C  0.00011154  0.22438876  0.02062338    -0.09500
C1141       C  0.00144120  0.19206947  0.50522906     0.29300
C1142       C  0.53032307  0.17991390  0.48929873    -0.21500
C1143       C  0.55892347  0.19715597  0.50125574    -0.09500
C1144       C  0.55551437  0.21995282  0.02749671     0.29300
F1145       F  0.58196077  0.23018046  0.04421963    -0.20100
H1146       H  0.52575977  0.25646674  0.05754899     0.17700
H1147       H  0.53121893  0.15754420  0.47030563     0.17700
F1148       F  0.97375445  0.17562078  0.49376792    -0.20000
C1149       C  0.81010415  0.27992078  0.49570153    -0.21500
C1150       C  0.81110338  0.30632670  0.01916415    -0.09500
C1151       C  0.78239869  0.31762675  0.03417929     0.29300
C1152       C  0.75310315  0.29945388  0.02474174    -0.21500
C1153       C  0.75211722  0.27295773  0.50001703    -0.09500
C1154       C  0.78129255  0.26229194  0.48551196     0.29300
F1155       F  0.78243545  0.23269180  0.46278532    -0.20100
H1156       H  0.83197421  0.26909324  0.48560196     0.17700
H1157       H  0.73157592  0.30621635  0.03802322     0.17700
F1158       F  0.78311507  0.34231186  0.06003067    -0.20000
C1159       C  0.50479875  0.37538221  0.16532653    -0.21500
C1160       C  0.53679395  0.36820455  0.15591449    -0.09500
C1161       C  0.54320181  0.36436562  0.12349520     0.29300
C1162       C  0.51814113  0.36560998  0.10156201    -0.21500
C1163       C  0.98707291  0.36226175  0.11423059    -0.09500
C1164       C  0.98032548  0.36634764  0.14653265     0.29300
F1165       F  0.94957738  0.36984890  0.15684544    -0.20100
H1166       H  0.99927708  0.36910621  0.19332315     0.17700
H1167       H  0.52389391  0.36101934  0.07696859     0.17700
F1168       F  0.57357205  0.35819973  0.11285453    -0.20000
C1169       C  0.89382397  0.20341744  0.17248927    -0.21500
C1170       C  0.86304474  0.21134392  0.18472467    -0.09500
C1171       C  0.84010522  0.23041681  0.16582698     0.29300
C1172       C  0.84888208  0.24482789  0.13624442    -0.21500
C1173       C  0.88039427  0.23965519  0.12487474    -0.09500
C1174       C  0.90237572  0.21697109  0.14249215     0.29300
F1175       F  0.93277790  0.21100193  0.13191355    -0.20100
H1176       H  0.91163066  0.18830719  0.18672261     0.17700
H1177       H  0.83146902  0.26183136  0.12278745     0.17700
F1178       F  0.81021961  0.23857390  0.17703687    -0.20000
C1179       C  0.86726034  0.23518366  0.40347142    -0.21500
C1180       C  0.87856250  0.25787898  0.37797815    -0.09500
C1181       C  0.89904461  0.29193415  0.38331932     0.29300
C1182       C  0.90870260  0.30217594  0.41405385    -0.21500
C1183       C  0.89821302  0.27829286  0.43962862    -0.09500
C1184       C  0.87702314  0.24478336  0.43379992     0.29300
F1185       F  0.86712456  0.21927297  0.45707871    -0.20100
H1186       H  0.85226514  0.20810255  0.39964967     0.17700
H1187       H  0.92487833  0.32808017  0.41776417     0.17700
F1188       F  0.91123308  0.31351489  0.35881097    -0.20000
C1189       C  0.52106377  0.63897369  0.40989091    -0.21500
C1190       C  0.98872700  0.64228366  0.39909160    -0.09500
C1191       C  0.98182445  0.64535565  0.36681064     0.29300
C1192       C  0.50760963  0.63725464  0.34583563    -0.21500
C1193       C  0.53980199  0.64077397  0.35558785    -0.09500
C1194       C  0.54628248  0.64081501  0.38800819     0.29300
F1195       F  0.57692566  0.64321895  0.39867405    -0.20100
H1196       H  0.52682531  0.64031248  0.43465718     0.17700
H1197       H  0.00053160  0.64979576  0.32005402     0.17700
F1198       F  0.95107741  0.64836094  0.35660204    -0.20000
C1199       C  0.52459387  0.77661154  0.47198720    -0.21500
C1200       C  0.99904060  0.77549773  0.49723945    -0.09500
C1201       C  0.50256808  0.78903348  0.02644403     0.29300
C1202       C  0.53323731  0.80179174  0.03646172    -0.21500
C1203       C  0.55865427  0.80434148  0.01484410    -0.09500
C1204       C  0.55183409  0.79926794  0.98269308     0.29300
F1205       F  0.57780930  0.79494747  0.45785391    -0.20100
H1206       H  0.01679551  0.78011166  0.44978084     0.17700
H1207       H  0.53764866  0.80639820  0.06126890     0.17700
F1208       F  0.47889033  0.78395613  0.04800941    -0.20000
C1209       C  0.78580041  0.69197895  0.46167559    -0.21500
C1210       C  0.80767336  0.67964800  0.48451025    -0.09500
C1211       C  0.79631814  0.68500198  0.01524879     0.29300
C1212       C  0.76669822  0.70239987  0.02432145    -0.21500
C1213       C  0.74735302  0.72197200  0.00203560    -0.09500
C1214       C  0.75664938  0.70961803  0.47045089     0.29300
F1215       F  0.73714107  0.72444180  0.44775364    -0.20100
H1216       H  0.79270034  0.69189097  0.43712642     0.17700
H1217       H  0.76029648  0.70372296  0.04893142     0.17700
F1218       F  0.81624174  0.67034866  0.03759957    -0.20000
C1219       C  0.91068503  0.51061812  0.97585803    -0.21500
C1220       C  0.91467331  0.54219478  0.99847662    -0.09500
C1221       C  0.91836254  0.53075139  0.03011164     0.29300
C1222       C  0.91813582  0.48897757  0.03864520    -0.21500
C1223       C  0.91497704  0.45748875  0.01591617    -0.09500
C1224       C  0.91113163  0.46880763  0.98435898     0.29300
F1225       F  0.90744607  0.43947049  0.96171917    -0.20100
H1226       H  0.91357061  0.51952560  0.44801950     0.17700
H1227       H  0.92132927  0.48119906  0.06308532     0.17700
F1228       F  0.92236280  0.55982965  0.05290603    -0.20000
C1229       C  0.84307018  0.76637558  0.34327966    -0.21500
C1230       C  0.86482503  0.79283691  0.32829395    -0.09500
C1231       C  0.89256318  0.80592977  0.34453545     0.29300
C1232       C  0.89957446  0.79003667  0.37431746    -0.21500
C1233       C  0.87916250  0.76053424  0.38808086    -0.09500
C1234       C  0.85012542  0.75019041  0.37273991     0.29300
F1235       F  0.82899772  0.72304720  0.38565640    -0.20100
H1236       H  0.82159643  0.75589999  0.33121132     0.17700
H1237       H  0.92175828  0.79903413  0.38576982     0.17700
F1238       F  0.91319482  0.83333591  0.33127012    -0.20000
C1239       C  0.87299114  0.71974352  0.08679763    -0.21500
C1240       C  0.90460437  0.70974771  0.07771483    -0.09500
C1241       C  0.92891142  0.71036412  0.10060857     0.29300
C1242       C  0.92211966  0.72476166  0.13098891    -0.21500
C1243       C  0.89092684  0.73722124  0.13913409    -0.09500
C1244       C  0.86616815  0.73320787  0.11722578     0.29300
F1245       F  0.83597952  0.74582750  0.12443614    -0.20100
H1246       H  0.85369817  0.71939311  0.06984367     0.17700
H1247       H  0.94148650  0.72797032  0.14777825     0.17700
F1248       F  0.95954982  0.69997982  0.09318547    -0.20000
O1249       O  0.96876962  0.63597069  0.95395220    -0.85500
O1250       O  0.97757748  0.71159125  0.98048459    -0.82600
C1251       C  0.97213850  0.74758267  0.99015356     0.97900
O1252       O  0.94357977  0.75911409  0.99487602    -0.82600
O1253       O  0.90862416  0.75233793  0.93748402    -0.85200
C1254       C  0.89122446  0.73666399  0.91609305     1.02500
O1255       O  0.88028500  0.70023374  0.91892255    -0.78000
O1256       O  0.93485377  0.65165489  0.91631098    -0.78200
C1257       C  0.96267448  0.64108100  0.92502586     1.02400
O1258       O  0.92822037  0.61405154  0.50532338    -0.85500
O1259       O  0.93981096  0.68911663  0.53378483    -0.82600
C1260       C  0.91350491  0.70371865  0.54405411     0.98000
O1261       O  0.89246677  0.71639651  0.52538615    -0.82600
O1262       O  0.85545337  0.71911106  0.97226941    -0.85200
C1263       C  0.84106321  0.68489792  0.97555168     1.02400
O1264       O  0.85571126  0.65139391  0.97009794    -0.78000
O1265       O  0.90768679  0.59661669  0.96145159    -0.78200
C1266       C  0.91640674  0.58638882  0.98865869     1.02400
Cr1267     Cr  0.95082870  0.66474042  0.49114930     1.93700
Cr1268     Cr  0.90138016  0.73308103  0.98133105     1.93200
Cr1269     Cr  0.89612411  0.65220426  0.94401315     1.39100
O1270       O  0.91625493  0.68304693  0.97253078    -1.23300
O1271       O  0.96793913  0.36651320  0.55661516    -0.85500
O1272       O  0.97660320  0.29225428  0.52933857    -0.82600
C1273       C  0.97206141  0.25387746  0.52825063     0.97900
O1274       O  0.94406615  0.23897346  0.52883781    -0.82600
O1275       O  0.90920391  0.25510949  0.58363398    -0.85200
C1276       C  0.89037347  0.27183629  0.60303253     1.02500
O1277       O  0.87824633  0.30635107  0.59668934    -0.78000
O1278       O  0.93429985  0.35358692  0.59581445    -0.78200
C1279       C  0.96227342  0.36291015  0.58599524     1.02400
O1280       O  0.92367360  0.38677028  0.50432451    -0.85500
O1281       O  0.94111566  0.31157387  0.98004810    -0.82600
C1282       C  0.91492457  0.29594443  0.97021477     0.98000
O1283       O  0.89438910  0.28150036  0.98895310    -0.82600
O1284       O  0.85582884  0.28062713  0.54519099    -0.85200
C1285       C  0.84198114  0.31356930  0.53710677     1.02400
O1286       O  0.85526818  0.34842197  0.54244964    -0.78000
O1287       O  0.90734271  0.40536754  0.55050658    -0.78200
C1288       C  0.91441502  0.41462709  0.52276508     1.02400
Cr1289     Cr  0.94750051  0.33754395  0.51898515     1.93700
Cr1290     Cr  0.90183842  0.26578034  0.53844679     1.93200
Cr1291     Cr  0.89522614  0.35094448  0.56904735     1.39100
O1292       O  0.91530520  0.31792473  0.54186736    -1.23300
O1293       O  0.71389891  0.13039592  0.96202365    -0.85500
O1294       O  0.72702874  0.20622122  0.98683852    -0.82600
C1295       C  0.72351081  0.24310948  0.99559779     0.97900
O1296       O  0.69586015  0.25639595  0.00214527    -0.82600
O1297       O  0.66040090  0.25322140  0.94580908    -0.85200
C1298       C  0.64241283  0.23907509  0.92432579     1.02500
O1299       O  0.62946796  0.20373974  0.92704407    -0.78000
O1300       O  0.68162633  0.15105883  0.92470010    -0.78200
C1301       C  0.70883798  0.13795080  0.93334708     1.02400
O1302       O  0.67452683  0.11374825  0.51112284    -0.85500
O1303       O  0.68802152  0.18791000  0.54035508    -0.82600
C1304       C  0.66238057  0.20445339  0.55054782     0.98000
O1305       O  0.64278688  0.22052674  0.53190738    -0.82600
O1306       O  0.60609290  0.22452525  0.98086761    -0.85200
C1307       C  0.59018533  0.19178580  0.98536266     1.02400
O1308       O  0.60220256  0.15710383  0.97810762    -0.78000
O1309       O  0.65085625  0.09818539  0.96993591    -0.78200
C1310       C  0.65942768  0.08755736  0.99710656     1.02400
Cr1311     Cr  0.69802176  0.16374754  0.49738414     1.93700
Cr1312     Cr  0.65246316  0.23422273  0.98962142     1.93200
Cr1313     Cr  0.64262359  0.15441973  0.95206455     1.39100
O1314       O  0.66448713  0.18315852  0.98053621    -1.23300
O1315       O  0.73138522  0.83581122  0.54595706    -0.85500
O1316       O  0.72509250  0.78012868  0.49614461    -0.82600
C1317       C  0.72467913  0.74649085  0.51084878     0.97900
O1318       O  0.70261251  0.73950679  0.53046125    -0.82600
O1319       O  0.64514545  0.74823247  0.56396190    -0.85200
C1320       C  0.64699318  0.76864816  0.58918590     1.02500
O1321       O  0.65432755  0.80630617  0.58907885    -0.78000
O1322       O  0.69425366  0.86852334  0.57368512    -0.78200
C1323       C  0.72301069  0.85492421  0.57076515     1.02400
O1324       O  0.69619301  0.89474792  0.51265231    -0.85500
O1325       O  0.67230665  0.83720274  0.97097051    -0.82600
C1326       C  0.66251060  0.80266792  0.96022251     0.98000
O1327       O  0.66550369  0.77041987  0.97632165    -0.82600
O1328       O  0.61578784  0.77887861  0.50852570    -0.85200
C1329       C  0.59671583  0.80348258  0.52179094     1.02400
O1330       O  0.60648010  0.82812105  0.54318978    -0.78000
O1331       O  0.64580560  0.89203593  0.52503936    -0.78200
C1332       C  0.66948643  0.91233935  0.51526278     1.02400
Cr1333     Cr  0.70532486  0.83441509  0.50711428     1.93700
Cr1334     Cr  0.65945582  0.76251043  0.52050338     1.93200
Cr1335     Cr  0.65178203  0.84640657  0.55544564     1.39100
O1336       O  0.67192680  0.81421879  0.52820597    -1.23300
O1337       O  0.55760870  0.36467964  0.71086286    -0.85500
O1338       O  0.54642527  0.29255045  0.74057085    -0.82600
C1339       C  0.55057944  0.25590181  0.74908151     0.97900
O1340       O  0.57846191  0.24264563  0.75401515    -0.82600
O1341       O  0.61313891  0.24413494  0.69649882    -0.85200
C1342       C  0.63123333  0.25750188  0.67480472     1.02500
O1343       O  0.64426226  0.29274278  0.67740616    -0.78000
O1344       O  0.59048132  0.34291329  0.67366115    -0.78200
C1345       C  0.56298740  0.35588746  0.68214486     1.02400
O1346       O  0.60049650  0.38960623  0.76242384    -0.85500
O1347       O  0.58683190  0.31662501  0.79300233    -0.82600
C1348       C  0.61211988  0.29900758  0.80258833     0.98000
O1349       O  0.63143385  0.28255123  0.78354075    -0.82600
O1350       O  0.66705710  0.27610534  0.73044239    -0.85200
C1351       C  0.68211864  0.30929118  0.73591041     1.02400
O1352       O  0.66999241  0.34343666  0.72759086    -0.78000
O1353       O  0.61979021  0.40037537  0.71567448    -0.78200
C1354       C  0.61201225  0.41397800  0.74238021     1.02400
Cr1355     Cr  0.57559849  0.33914746  0.75022628     1.93700
Cr1356     Cr  0.62118697  0.26527946  0.74021497     1.93200
Cr1357     Cr  0.62967595  0.34297803  0.70092080     1.39100
O1358       O  0.60845496  0.31582895  0.73054697    -1.23300
O1359       O  0.56084025  0.63737227  0.80152501    -0.85500
O1360       O  0.55075091  0.71087199  0.77363228    -0.82600
C1361       C  0.55520436  0.74755559  0.76502800     0.97900
O1362       O  0.58316674  0.76033849  0.75891892    -0.82600
O1363       O  0.61544899  0.75988668  0.81585589    -0.85200
C1364       C  0.63069464  0.74617293  0.83892870     1.02500
O1365       O  0.64478154  0.71164240  0.83733134    -0.78000
O1366       O  0.59264470  0.65972720  0.83935270    -0.78200
C1367       C  0.56570482  0.64581471  0.83034370     1.02400
O1368       O  0.60416697  0.61492533  0.75027437    -0.85500
O1369       O  0.59062195  0.68918336  0.72042804    -0.82600
C1370       C  0.61626355  0.70759329  0.71214730     0.98000
O1371       O  0.63648190  0.71881810  0.73213082    -0.82600
O1372       O  0.67105760  0.72773076  0.78471479    -0.85200
C1373       C  0.68596004  0.69435535  0.78031727     1.02400
O1374       O  0.67298134  0.66048032  0.78813116    -0.78000
O1375       O  0.62264003  0.60340589  0.79720532    -0.78200
C1376       C  0.61505457  0.59020107  0.77025386     1.02400
Cr1377     Cr  0.57925752  0.66461069  0.76289770     1.93700
Cr1378     Cr  0.62533153  0.73791703  0.77371558     1.93200
Cr1379     Cr  0.63204034  0.66064070  0.81323153     1.39100
O1380       O  0.61184063  0.68764059  0.78332156    -1.23300
O1381       O  0.80715345  0.13156339  0.81275890    -0.85500
O1382       O  0.79547712  0.20768011  0.78881295    -0.82600
C1383       C  0.79967855  0.24442765  0.78018270     0.97900
O1384       O  0.82766581  0.25718099  0.77377621    -0.82600
O1385       O  0.86453629  0.25139452  0.82859837    -0.85200
C1386       C  0.88300819  0.23698859  0.84911807     1.02500
O1387       O  0.89512407  0.20154795  0.84574487    -0.78000
O1388       O  0.84040526  0.15207366  0.84981698    -0.78200
C1389       C  0.81281466  0.13927284  0.84148359     1.02400
O1390       O  0.84673593  0.11285455  0.75815664    -0.85500
O1391       O  0.83172645  0.18874170  0.73277720    -0.82600
C1392       C  0.85727165  0.20557438  0.72263339     0.98000
O1393       O  0.87878319  0.21793775  0.74099779    -0.82600
O1394       O  0.91697548  0.22079135  0.79174682    -0.85200
C1395       C  0.93138763  0.18716110  0.78674402     1.02400
O1396       O  0.91813246  0.15309075  0.79392621    -0.78000
O1397       O  0.86681889  0.09699568  0.80368804    -0.78200
C1398       C  0.85863391  0.08645494  0.77622398     1.02400
Cr1399     Cr  0.82298770  0.16162983  0.77450864     1.93700
Cr1400     Cr  0.87073539  0.23301882  0.78468536     1.93200
Cr1401     Cr  0.87859350  0.15289254  0.82120634     1.39100
O1402       O  0.85728198  0.18243110  0.79335335    -1.23300
O1403       O  0.81024308  0.86293192  0.70030865    -0.85500
O1404       O  0.80190532  0.78777928  0.72675110    -0.82600
C1405       C  0.80631272  0.75270165  0.73825793     0.97900
O1406       O  0.83404213  0.74247570  0.74662262    -0.82600
O1407       O  0.86931791  0.74631866  0.68990026    -0.85200
C1408       C  0.88678085  0.76075628  0.66817751     1.02500
O1409       O  0.89965060  0.79624287  0.67087053    -0.78000
O1410       O  0.84715632  0.84660682  0.66544722    -0.78200
C1411       C  0.81864603  0.85730667  0.67183287     1.02400
O1412       O  0.84786557  0.88790667  0.75551336    -0.85500
O1413       O  0.83646152  0.81302047  0.78336582    -0.82600
C1414       C  0.86265500  0.79928694  0.79446188     0.98000
O1415       O  0.88446771  0.78642255  0.77646626    -0.82600
O1416       O  0.92194799  0.77924800  0.72433492    -0.85200
C1417       C  0.93648592  0.81275826  0.72961030     1.02400
O1418       O  0.92345169  0.84665265  0.72253597    -0.78000
O1419       O  0.87294589  0.90246858  0.71180117    -0.78200
C1420       C  0.86175821  0.91371301  0.73812493     1.02400
Cr1421     Cr  0.82687022  0.83655958  0.74019394     1.93700
Cr1422     Cr  0.87617206  0.76740623  0.73331947     1.93200
Cr1423     Cr  0.88427983  0.84608467  0.69488989     1.39100
O1424       O  0.86228085  0.81706827  0.72287327    -1.23300
C1425       C  0.86171377  0.01111392  0.78880422    -0.21500
C1426       C  0.86149308  0.04247348  0.76615192    -0.09500
C1427       C  0.86302068  0.03104381  0.73424355     0.29300
C1428       C  0.86432378  0.98924616  0.72538414    -0.21500
C1429       C  0.86347521  0.95788499  0.74802034    -0.09500
C1430       C  0.86240491  0.96935747  0.77994799     0.29300
F1431       F  0.86208018  0.94024726  0.80268554    -0.20100
H1432       H  0.86052528  0.01888623  0.81354828     0.17700
H1433       H  0.86503041  0.98136193  0.70064533     0.17700
F1434       F  0.86333317  0.06021087  0.71156881    -0.20000
C1435       C  0.74596877  0.68442464  0.78029840    -0.21500
C1436       C  0.71783824  0.69712305  0.76513920    -0.09500
C1437       C  0.72064214  0.72043059  0.73756063     0.29300
C1438       C  0.75030915  0.73406942  0.72704378    -0.21500
C1439       C  0.77806846  0.72600181  0.74411616    -0.09500
C1440       C  0.77616306  0.69879875  0.76981757     0.29300
F1441       F  0.80281184  0.68933610  0.78647358    -0.20100
H1442       H  0.74441994  0.66652440  0.80158512     0.17700
H1443       H  0.75114918  0.75413057  0.70683619     0.17700
F1444       F  0.69452101  0.73340394  0.72189848    -0.20000
C1445       C  0.49860696  0.76297106  0.77645544    -0.21500
C1446       C  0.52683414  0.77414311  0.76077453    -0.09500
C1447       C  0.52577642  0.80617269  0.73848247     0.29300
C1448       C  0.99619774  0.81784594  0.72630259    -0.21500
C1449       C  0.96844384  0.80940588  0.74392157    -0.09500
C1450       C  0.97104479  0.78533929  0.77114014     0.29300
F1451       F  0.94478330  0.77507965  0.78817911    -0.20100
H1452       H  0.49872926  0.73899216  0.79402944     0.17700
H1453       H  0.99457060  0.83523641  0.70479382     0.17700
F1454       F  0.55280684  0.81832811  0.72314146    -0.20000
C1455       C  0.77148530  0.30218732  0.75197206    -0.21500
C1456       C  0.77111620  0.27086524  0.77486440    -0.09500
C1457       C  0.74168826  0.26046857  0.78900872     0.29300
C1458       C  0.71319748  0.27732950  0.77810383    -0.21500
C1459       C  0.71298030  0.30502558  0.75287028    -0.09500
C1460       C  0.74253403  0.31906957  0.74084502     0.29300
F1461       F  0.74332725  0.34569994  0.71645514    -0.20100
H1462       H  0.79387669  0.31118910  0.74091979     0.17700
H1463       H  0.69088301  0.26590781  0.78786980     0.17700
F1464       F  0.74006149  0.23161329  0.81190328    -0.20000
C1465       C  0.49519438  0.23534610  0.73535421    -0.21500
C1466       C  0.52205977  0.22941912  0.75430651    -0.09500
C1467       C  0.51939951  0.20311940  0.78043885     0.29300
C1468       C  0.99141760  0.18306380  0.78966992    -0.21500
C1469       C  0.96352044  0.19035391  0.77219965    -0.09500
C1470       C  0.96620183  0.21215106  0.74389119     0.29300
F1471       F  0.93991271  0.21997087  0.72637144    -0.20100
H1472       H  0.49662815  0.25553323  0.71522655     0.17700
H1473       H  0.98980048  0.16722703  0.81190873     0.17700
F1474       F  0.54474222  0.19785907  0.79991717    -0.20000
C1475       C  0.61876020  0.47328170  0.78027917    -0.21500
C1476       C  0.61503815  0.45900030  0.74931928    -0.09500
C1477       C  0.61297115  0.48830439  0.72510809     0.29300
C1478       C  0.61377149  0.53073094  0.73194337    -0.19900
C1479       C  0.61706957  0.54511663  0.76296487    -0.09500
C1480       C  0.62008477  0.51572578  0.78708535     0.29300
F1481       F  0.62317094  0.52779821  0.81749338    -0.20100
H1482       H  0.62048138  0.45151271  0.79932168     0.17700
H1483       H  0.61128208  0.55237227  0.71290291     0.17700
F1484       F  0.60868546  0.47606464  0.69487374    -0.20000
C1485       C  0.78034967  0.85523374  0.58999393    -0.21500
C1486       C  0.74745374  0.86091430  0.59649562    -0.09500
C1487       C  0.73858614  0.86903803  0.62793539     0.29300
C1488       C  0.76180082  0.86935600  0.65206440    -0.21500
C1489       C  0.79457905  0.86200000  0.64564170    -0.09500
C1490       C  0.80353153  0.85604325  0.61393024     0.29300
F1491       F  0.83471055  0.84992313  0.60585191    -0.20100
H1492       H  0.78825894  0.84935753  0.56616705     0.17700
H1493       H  0.75386460  0.87415308  0.67600957     0.17700
F1494       F  0.70728980  0.87476142  0.63570938    -0.20000
C1495       C  0.66079393  0.81765909  0.90253388    -0.21500
C1496       C  0.64843768  0.79706687  0.92881956    -0.09500
C1497       C  0.62587902  0.76477054  0.92441721     0.29300
C1498       C  0.61788679  0.75133517  0.89450371    -0.21500
C1499       C  0.63237696  0.76923359  0.86841211    -0.09500
C1500       C  0.65301518  0.80347775  0.87225302     0.29300
F1501       F  0.66784506  0.82051364  0.84704860    -0.20100
H1502       H  0.67844807  0.84213262  0.90540963     0.17700
H1503       H  0.60210132  0.72475237  0.89176936     0.17700
F1504       F  0.61333388  0.74379606  0.94910124    -0.20000
C1505       C  0.64600238  0.77374186  0.64672531    -0.21500
C1506       C  0.63974794  0.74982033  0.61987939    -0.09500
C1507       C  0.62473693  0.71083892  0.62329248     0.29300
C1508       C  0.61606371  0.69667119  0.65331633    -0.21500
C1509       C  0.62249032  0.72123008  0.67987819    -0.09500
C1510       C  0.63719133  0.76011027  0.67608836     0.29300
F1511       F  0.64261643  0.78574339  0.70094424    -0.20100
H1512       H  0.65734141  0.80387109  0.64516472     0.17700
H1513       H  0.60487482  0.66659082  0.65585431     0.17700
F1514       F  0.61808743  0.68685732  0.59785634    -0.20000
C1515       C  0.63409441  0.01693105  0.99242488    -0.21500
C1516       C  0.66318521  0.04342336  0.49904255    -0.09500
C1517       C  0.69048561  0.02618101  0.51308948     0.29300
C1518       C  0.69243012  0.98354019  0.51761325    -0.21500
C1519       C  0.66693384  0.95719076  0.50903732    -0.09500
C1520       C  0.63944140  0.97433814  0.49527031     0.29300
F1521       F  0.61265541  0.94917158  0.98419277    -0.20100
H1522       H  0.61689591  0.02879688  0.97582753     0.17700
H1523       H  0.71382397  0.97109983  0.52828994     0.17700
F1524       F  0.71588700  0.05038255  0.52140006    -0.20000
C1525       C  0.67162233  0.23254751  0.63625598    -0.21500
C1526       C  0.63942344  0.23285312  0.64649975    -0.09500
C1527       C  0.61559047  0.21688746  0.62651445     0.29300
C1528       C  0.62360648  0.20479219  0.59575555    -0.21500
C1529       C  0.65551533  0.20777599  0.58469418    -0.09500
C1530       C  0.67971490  0.21971804  0.60581094     0.29300
F1531       F  0.71074196  0.22285776  0.59618150    -0.20100
H1532       H  0.69039913  0.24469252  0.65133319     0.17700
H1533       H  0.60462610  0.19482256  0.58008468     0.17700
F1534       F  0.58432456  0.21659360  0.63563508    -0.20000
C1535       C  0.65009454  0.29736376  0.84800555    -0.21500
C1536       C  0.61847002  0.29403830  0.83649510    -0.09500
C1537       C  0.59426882  0.27879418  0.85634543     0.29300
C1538       C  0.60221892  0.26312176  0.88577224    -0.21500
C1539       C  0.63418997  0.26361286  0.89638386    -0.09500
C1540       C  0.65786083  0.28292849  0.87799568     0.29300
F1541       F  0.68882787  0.28465690  0.88781368    -0.20100
H1542       H  0.66906127  0.30942554  0.83316686     0.17700
H1543       H  0.58353192  0.24881448  0.89978880     0.17700
F1544       F  0.56349331  0.27532746  0.84616594    -0.20000
C1545       C  0.72898206  0.13464547  0.87776367    -0.21500
C1546       C  0.73548256  0.13276664  0.91001048    -0.09500
C1547       C  0.76793892  0.12989197  0.91949733     0.29300
C1548       C  0.79296105  0.13100700  0.89724781    -0.21500
C1549       C  0.78636379  0.13408872  0.86502231    -0.09500
C1550       C  0.75389217  0.13502631  0.85556825     0.29300
F1551       F  0.74602165  0.13852096  0.82485178    -0.20100
H1552       H  0.70444368  0.13692511  0.86961532     0.17700
H1553       H  0.81759431  0.13013472  0.90532207     0.17700
F1554       F  0.77574277  0.12785169  0.95033912    -0.20000
C1555       C  0.52747482  0.24052964  0.53631539    -0.21500
C1556       C  0.00074696  0.22741942  0.52486804    -0.09500
C1557       C  0.00151946  0.19829268  0.99395804     0.29300
C1558       C  0.52989315  0.18773920  0.98261401    -0.21500
C1559       C  0.55797885  0.19659498  0.99961786    -0.09500
C1560       C  0.55693409  0.22636680  0.52578306     0.29300
F1561       F  0.58363050  0.24457948  0.53776328    -0.20100
H1562       H  0.52727100  0.26473985  0.55401126     0.17700
H1563       H  0.53129735  0.17077757  0.96066530     0.17700
F1564       F  0.97573151  0.19407041  0.97476382    -0.20000
C1565       C  0.80969399  0.27889754  0.99344075    -0.21500
C1566       C  0.81085902  0.30839429  0.52069330    -0.09500
C1567       C  0.78162365  0.32249161  0.53319712     0.29300
C1568       C  0.75235020  0.30487265  0.52282278    -0.21500
C1569       C  0.75231969  0.26954177  0.00048540    -0.09500
C1570       C  0.78073171  0.26100884  0.98397629     0.29300
F1571       F  0.78102820  0.23308699  0.96002378    -0.20100
H1572       H  0.83137252  0.26824776  0.98253849     0.17700
H1573       H  0.73023337  0.31390979  0.53427674     0.17700
F1574       F  0.78149160  0.35029698  0.55716465    -0.20000
C1575       C  0.50392352  0.36133104  0.66850250    -0.21500
C1576       C  0.53630838  0.36013349  0.65858118    -0.09500
C1577       C  0.54241519  0.36055593  0.62604165     0.29300
C1578       C  0.51701049  0.36160045  0.60435855    -0.21500
C1579       C  0.98918738  0.36763701  0.60911298    -0.09500
C1580       C  0.98357961  0.37983228  0.64046640     0.29300
F1581       F  0.95422932  0.39369573  0.64943078    -0.20100
H1582       H  0.00260638  0.38607208  0.68705908     0.17700
H1583       H  0.52284378  0.36112099  0.57956556     0.17700
F1584       F  0.57300418  0.35965613  0.61499041    -0.20000
C1585       C  0.88686868  0.19879280  0.67232713    -0.21500
C1586       C  0.86131382  0.21572212  0.68954408    -0.09500
C1587       C  0.84466481  0.24948460  0.67763144     0.29300
C1588       C  0.85408004  0.26691164  0.64928046    -0.21500
C1589       C  0.88028282  0.25095121  0.63221103    -0.09500
C1590       C  0.89612911  0.21590099  0.64359942     0.29300
F1591       F  0.92139199  0.19937888  0.62784943    -0.20100
H1592       H  0.90047626  0.17339640  0.68181263     0.17700
H1593       H  0.84123787  0.29370113  0.64111283     0.17700
F1594       F  0.82097028  0.26766749  0.69464327    -0.20000
C1595       C  0.92411093  0.26564388  0.88536418    -0.21500
C1596       C  0.89163153  0.26118441  0.87693987    -0.09500
C1597       C  0.86762972  0.27520028  0.89725814     0.29300
C1598       C  0.87591268  0.29073860  0.92671860    -0.21500
C1599       C  0.90817275  0.29157246  0.93648651    -0.09500
C1600       C  0.93245953  0.28123077  0.91495034     0.29300
F1601       F  0.96388965  0.28275908  0.92331880    -0.20100
H1602       H  0.94285103  0.25515422  0.86962129     0.17700
H1603       H  0.85709800  0.29994406  0.94244901     0.17700
F1604       F  0.83612908  0.27006769  0.88992376    -0.20000
C1605       C  0.52031407  0.63736621  0.90780398    -0.21500
C1606       C  0.98920988  0.63646260  0.90160455    -0.09500
C1607       C  0.98376030  0.62327319  0.87048498     0.29300
C1608       C  0.50701867  0.64188386  0.84378980    -0.21500
C1609       C  0.53921566  0.64052249  0.85360082    -0.09500
C1610       C  0.54555074  0.63759392  0.88594874     0.29300
F1611       F  0.57618780  0.63552637  0.89659229    -0.20100
H1612       H  0.52613250  0.63608290  0.93253850     0.17700
H1613       H  0.00374338  0.61437772  0.82435738     0.17700
F1614       F  0.95419733  0.60981180  0.86153838    -0.20000
C1615       C  0.52187461  0.78438440  0.97296649    -0.21500
C1616       C  0.99987103  0.77420706  0.99872370    -0.09500
C1617       C  0.50611199  0.78718925  0.52521043     0.29300
C1618       C  0.53712513  0.80078862  0.53396283    -0.21500
C1619       C  0.56234482  0.80103438  0.51192887    -0.09500
C1620       C  0.55501469  0.79149911  0.48041516     0.29300
F1621       F  0.57474785  0.80685261  0.96080792    -0.20100
H1622       H  0.01536020  0.78375109  0.95097792     0.17700
H1623       H  0.54192158  0.80814228  0.55833248     0.17700
F1624       F  0.48285682  0.78431296  0.54745824    -0.20000
C1625       C  0.78569828  0.70249483  0.96126323    -0.21500
C1626       C  0.80655387  0.68649803  0.98372044    -0.09500
C1627       C  0.79828376  0.68024832  0.51623549     0.29300
C1628       C  0.76904175  0.69829628  0.52518319    -0.21500
C1629       C  0.74912076  0.71556724  0.50239269    -0.09500
C1630       C  0.75652533  0.72010369  0.97020628     0.29300
F1631       F  0.73836565  0.73828894  0.94786886    -0.20100
H1632       H  0.79327192  0.70463802  0.93706162     0.17700
H1633       H  0.76351156  0.70225341  0.54988493     0.17700
F1634       F  0.81877238  0.66722998  0.53864817    -0.20000
C1635       C  0.91367204  0.51175348  0.47266897    -0.21500
C1636       C  0.91531400  0.54314901  0.49568096    -0.09500
C1637       C  0.91543719  0.53173115  0.52746674     0.29300
C1638       C  0.91428408  0.49005111  0.53585081    -0.21500
C1639       C  0.91346335  0.45859783  0.51288958    -0.09500
C1640       C  0.91304083  0.46994325  0.48107784     0.29300
F1641       F  0.91196166  0.44076088  0.45806699    -0.20100
H1642       H  0.90788567  0.51823574  0.95134701     0.17700
H1643       H  0.91478433  0.48238223  0.56051265     0.17700
F1644       F  0.91664598  0.56076866  0.55058214    -0.20000
C1645       C  0.84401973  0.77033698  0.84506172    -0.21500
C1646       C  0.86702253  0.79325692  0.82854235    -0.09500
C1647       C  0.89648300  0.80290843  0.84324252     0.29300
C1648       C  0.90373721  0.78671898  0.87283386    -0.21500
C1649       C  0.88183659  0.76039480  0.88796936    -0.09500
C1650       C  0.85131722  0.75387830  0.87439374     0.29300
F1651       F  0.82886886  0.73017871  0.88895028    -0.20100
H1652       H  0.82121705  0.76255983  0.83424908     0.17700
H1653       H  0.92712211  0.79278918  0.88302474     0.17700
F1654       F  0.91860001  0.82696882  0.82856302    -0.20000
C1655       C  0.87546242  0.71090338  0.58916255    -0.21500
C1656       C  0.90736889  0.70891248  0.57815547    -0.09500
C1657       C  0.93248252  0.71741269  0.59927305     0.29300
C1658       C  0.92553705  0.73222526  0.62945943    -0.21500
C1659       C  0.89358632  0.73668314  0.63956548    -0.09500
C1660       C  0.86858427  0.72387321  0.61979958     0.29300
F1661       F  0.83749792  0.72743050  0.62909873    -0.20100
H1662       H  0.85568523  0.70432803  0.57354775     0.17700
H1663       H  0.94513290  0.74175509  0.64462258     0.17700
F1664       F  0.96361706  0.71438232  0.59016071    -0.20000
loop_ 
_geom_bond_atom_site_label_1 
_geom_bond_atom_site_label_2 
_geom_bond_distance 
_geom_bond_site_symmetry_2 
_ccdc_geom_bond_type 
O1            C9   1.273       .  A
O1         Cr435   2.021       .  S
O2            C3   1.256       .  A
O2         Cr435   1.974       .  S
C3            O4   1.267       .  A
C3          C368   1.484       .  S
O4          Cr20   2.034       .  S
O5            C6   1.267       .  A
O5          Cr20   2.002       .  S
C6            O7   1.267       .  A
C6          C401   1.488       .  S
O7          Cr21   2.014       .  S
O8            C9   1.265       .  A
O8          Cr21   1.982       .  S
C9          C358   1.492       .  S
O10         C434   1.260   1_554  A
O10         Cr19   1.989   1_554  S
O11          C12   1.272       .  A
O11         Cr19   2.033   1_554  S
C12          O13   1.257       .  A
C12         C408   1.482       .  S
O13        Cr436   1.956   1_554  S
O14          C15   1.267       .  A
O14         Cr20   2.002       .  S
C15          O16   1.266       .  A
C15         C378   1.469       .  S
O16         Cr21   1.998       .  S
O17          C18   1.265       .  A
O17         Cr21   2.017       .  S
C18         O426   1.259       .  A
C18         C804   1.493       .  S
Cr19        O417   2.025       .  S
Cr19        O418   1.975       .  S
Cr19        O438   1.767       .  S
Cr20        O429   1.965       .  S
Cr20         O22   1.772       .  S
Cr21         O22   1.773       .  S
O22        Cr435   1.769       .  S
O23          C31   1.272       .  A
O23         Cr41   2.016       .  S
O24          C25   1.258       .  A
O24         Cr41   1.976       .  S
C25          O26   1.260       .  A
C25         C308   1.480       .  S
O26         Cr42   2.012       .  S
O27          C28   1.267       .  A
O27         Cr42   1.999       .  S
C28          O29   1.267       .  A
C28         C341   1.480       .  S
O29         Cr43   2.006       .  S
O30          C31   1.269       .  A
O30         Cr43   1.998       .  S
C31         C331   1.498       .  S
O32          C40   1.259       .  A
O32         Cr41   1.988       .  S
O33          C34   1.270       .  A
O33        Cr457   2.020       .  S
C34          O35   1.256       .  A
C34         C351   1.471       .  S
O35        Cr458   1.956       .  S
O36          C37   1.261       .  A
O36         Cr42   1.985       .  S
C37          O38   1.270       .  A
C37         C318   1.479       .  S
O38         Cr43   2.020       .  S
O39          C40   1.263       .  A
O39         Cr43   2.010       .  S
C40         C391   1.491       .  S
Cr41        O449   2.019   1_554  S
Cr41         O44   1.770       .  S
Cr42        O451   1.968   1_554  S
Cr42         O44   1.774       .  S
Cr43         O44   1.774       .  S
O45          C53   1.271       .  A
O45        Cr479   2.016       .  S
O46          C47   1.256       .  A
O46        Cr479   1.974       .  S
C47          O48   1.259       .  A
C47         C321   1.482       .  S
O48         Cr64   2.003       .  S
O49          C50   1.264       .  A
O49         Cr64   1.987       .  S
C50          O51   1.268       .  A
C50         C291   1.472       .  S
O51         Cr65   2.014       .  S
O52          C53   1.270       .  A
O52         Cr65   2.002       .  S
C53         C298   1.503       .  S
O54         C478   1.261   1_554  A
O54         Cr63   1.987   1_554  S
O55          C56   1.271       .  A
O55         Cr63   2.027   1_554  S
C56          O57   1.258       .  A
C56         C281   1.478       .  S
O57        Cr480   1.969   1_554  S
O58          C59   1.260       .  A
O58         Cr64   1.982       .  S
C59          O60   1.269       .  A
C59         C311   1.481       .  S
O60         Cr65   2.021       .  S
O61          C62   1.263       .  A
O61         Cr65   2.010       .  S
C62         O470   1.258       .  A
C62         C684   1.478       .  S
Cr63        O461   2.007       .  S
Cr63        O462   1.978       .  S
Cr63        O482   1.777       .  S
Cr64        O473   1.967       .  S
Cr64         O66   1.769       .  S
Cr65         O66   1.778       .  S
O66        Cr479   1.770       .  S
O67          C75   1.269       .  A
O67         Cr85   1.990       .  S
O68          C69   1.265   1_556  A
O68         Cr85   2.003   1_556  S
C69          O70   1.264       .  A
C69         C381   1.472       .  S
O70         Cr86   1.997       .  S
O71          C72   1.260       .  A
O71         Cr86   2.005       .  S
C72          O73   1.257       .  A
C72         C258   1.469       .  S
O73         Cr87   1.978       .  S
O74          C75   1.275       .  A
O74         Cr87   2.031       .  S
C75         C238   1.502       .  S
O76          C84   1.263       .  A
O76         Cr85   2.008       .  S
O77          C78   1.270       .  A
O77        Cr501   2.017       .  S
C78          O79   1.263       .  A
C78         C248   1.486       .  S
O79        Cr502   1.991       .  S
O80          C81   1.257       .  A
O80         Cr86   1.967       .  S
C81          O82   1.273       .  A
C81         C371   1.489       .  S
O82         Cr87   2.044       .  S
O83          C84   1.261       .  A
O83         Cr87   1.999       .  S
C84         C271   1.491       .  S
Cr85        O493   2.007   1_554  S
Cr85         O88   1.774       .  S
Cr86        O495   1.982   1_554  S
Cr86         O88   1.776       .  S
Cr87         O88   1.770       .  S
O89          C97   1.277       .  A
O89        Cr107   2.027       .  S
O90          C91   1.258       .  A
O90        Cr107   1.970       .  S
C91          O92   1.260       .  A
C91         C218   1.478       .  S
O92        Cr108   2.004       .  S
O93          C94   1.266       .  A
O93        Cr108   2.008       .  S
C94          O95   1.261       .  A
C94         C278   1.483       .  S
O95        Cr109   1.994       .  S
O96          C97   1.271       .  A
O96        Cr109   1.988       .  S
C97         C328   1.499       .  S
O98         C106   1.258       .  A
O98        Cr107   1.997       .  S
O99         C100   1.270       .  A
O99        Cr107   2.021       .  S
C100        O101   1.258       .  A
C100        C288   1.476       .  S
O101       Cr108   1.963       .  S
O102        C103   1.264       .  A
O102       Cr108   1.983       .  S
C103        O104   1.270       .  A
C103        C211   1.474       .  S
O104       Cr109   2.013       .  S
O105        C106   1.256       .  A
O105       Cr109   1.994       .  S
C106        C228   1.489       .  S
Cr107       O110   1.772       .  S
Cr108       O110   1.774       .  S
Cr109       O110   1.775       .  S
O111        C119   1.272       .  A
O111       Cr129   2.016       .  S
O112        C113   1.258       .  A
O112       Cr129   1.978       .  S
C113        O114   1.257       .  A
C113        C198   1.470       .  S
O114       Cr130   1.997       .  S
O115        C116   1.267       .  A
O115       Cr130   1.996       .  S
C116        O117   1.268       .  A
C116        C251   1.472       .  S
O117       Cr131   2.006       .  S
O118        C119   1.267       .  A
O118       Cr131   1.988       .  S
C119        C361   1.492       .  S
O120        C128   1.260       .  A
O120       Cr129   1.988       .  S
O121        C122   1.271       .  A
O121       Cr129   2.028       .  S
C122        O123   1.259       .  A
C122        C261   1.483       .  S
O123       Cr130   1.965       .  S
O124        C125   1.257       .  A
O124       Cr130   1.977       .  S
C125        O126   1.267       .  A
C125        C188   1.478       .  S
O126       Cr131   2.021       .  S
O127        C128   1.261       .  A
O127       Cr131   2.003       .  S
C128        C231   1.487       .  S
Cr129       O132   1.772       .  S
Cr130       O132   1.774       .  S
Cr131       O132   1.776       .  S
O133        C141   1.271       .  A
O133       Cr151   2.015       .  S
O134        C135   1.259       .  A
O134       Cr151   1.974       .  S
C135        O136   1.259       .  A
C135        C208   1.480       .  S
O136       Cr152   2.001       .  S
O137        C138   1.263       .  A
O137       Cr152   1.990       .  S
C138        O139   1.263       .  A
C138        C348   1.467       .  S
O139       Cr153   1.995       .  S
O140        C141   1.271       .  A
O140       Cr153   2.004       .  S
C141        C301   1.499       .  S
O142        C150   1.260       .  A
O142       Cr151   1.991       .  S
O143        C144   1.269       .  A
O143       Cr151   2.024       .  S
C144        O145   1.256       .  A
C144        C338   1.477       .  S
O145       Cr152   1.966       .  S
O146        C147   1.261       .  A
O146       Cr152   1.982       .  S
C147        O148   1.270       .  A
C147        C221   1.476       .  S
O148       Cr153   2.018       .  S
O149        C150   1.261       .  A
O149       Cr153   2.001       .  S
C150        C178   1.487       .  S
Cr151       O154   1.767       .  S
Cr152       O154   1.773       .  S
Cr153       O154   1.774       .  S
O155        C163   1.276       .  A
O155       Cr173   2.034       .  S
O156        C157   1.255       .  A
O156       Cr173   1.965       .  S
C157        O158   1.258       .  A
C157        C191   1.480       .  S
O158       Cr174   2.010       .  S
O159        C160   1.264       .  A
O159       Cr174   1.988       .  S
C160        O161   1.265       .  A
C160        C411   1.467       .  S
O161       Cr175   2.007       .  S
O162        C163   1.264       .  A
O162       Cr175   1.981       .  S
C163        C241   1.504       .  S
O164        C172   1.258       .  A
O164       Cr173   1.984       .  S
O165        C166   1.275       .  A
O165       Cr173   2.044       .  S
C166        O167   1.259       .  A
C166        C398   1.482       .  S
O167       Cr174   1.963       .  S
O168        C169   1.262       .  A
O168       Cr174   1.984       .  S
C169        O170   1.268       .  A
C169        C201   1.471       .  S
O170       Cr175   2.008       .  S
O171        C172   1.264       .  A
O171       Cr175   2.011       .  S
C172        C181   1.488       .  S
Cr173       O176   1.766       .  S
Cr174       O176   1.770       .  S
Cr175       O176   1.775       .  S
C177        C178   1.408       .  A
C177        C182   1.401   1_545  A
C177        H184   1.084       .  S
C178        C179   1.406       .  A
C179        C180   1.402   1_545  A
C179        F186   1.357       .  S
C180        C181   1.408       .  A
C180        H185   1.084       .  S
C181        C182   1.408       .  A
C182        F183   1.358       .  S
C187        C188   1.405       .  A
C187        C192   1.411       .  A
C187        H194   1.083       .  S
C188        C189   1.409       .  A
C189        C190   1.383       .  A
C189        F196   1.354       .  S
C190        C191   1.397       .  A
C190        H195   1.084       .  S
C191        C192   1.414       .  A
C192        F193   1.357       .  S
C197        C198   1.396       .  A
C197       C1034   1.390   1_455  A
C197        H204   1.083       .  S
C198        C199   1.410       .  A
C199       C1032   1.405   1_455  A
C199        F206   1.358       .  S
C200        C201   1.404       .  A
C200       C1031   1.408       .  A
C200        H205   1.083       .  S
C201        C202   1.406       .  A
C202       C1029   1.386       .  A
C202        F203   1.353       .  S
C207        C208   1.412       .  A
C207        C212   1.408       .  A
C207        H214   1.083       .  S
C208        C209   1.402       .  A
C209        C210   1.387       .  A
C209        F216   1.358       .  S
C210        C211   1.404       .  A
C210        H215   1.081       .  S
C211        C212   1.403       .  A
C212        F213   1.357       .  S
C217        C218   1.396   1_655  A
C217       C1054   1.388       .  A
C217        H224   1.084       .  S
C218        C219   1.412       .  A
C219       C1052   1.410   1_455  A
C219        F226   1.357       .  S
C220        C221   1.403       .  A
C220       C1051   1.407       .  A
C220        H225   1.083       .  S
C221        C222   1.409       .  A
C222       C1049   1.387       .  A
C222        F223   1.352       .  S
C227        C228   1.405       .  A
C227        C232   1.402       .  A
C227        H234   1.082       .  S
C228        C229   1.413       .  A
C229        C230   1.400       .  A
C229        F236   1.358       .  S
C230        C231   1.403       .  A
C230        H235   1.083       .  S
C231        C232   1.411       .  A
C232        F233   1.357       .  S
C237        C238   1.407       .  A
C237        C242   1.405       .  A
C237        H244   1.083       .  S
C238        C239   1.413       .  A
C239        C240   1.408       .  A
C239        F246   1.357       .  S
C240        C241   1.408       .  A
C240        H245   1.082       .  S
C241        C242   1.415       .  A
C242        F243   1.358       .  S
C247        C248   1.407       .  A
C247        C252   1.412       .  A
C247        H254   1.083       .  S
C248        C249   1.411       .  A
C249        C250   1.390       .  A
C249        F256   1.358       .  S
C250        C251   1.396       .  A
C250        H255   1.084       .  S
C251        C252   1.410       .  A
C252        F253   1.357       .  S
C257        C258   1.405       .  A
C257        C262   1.404       .  A
C257        H264   1.083       .  S
C258        C259   1.399       .  A
C259        C260   1.394       .  A
C259        F266   1.358       .  S
C260        C261   1.407       .  A
C260        H265   1.079       .  S
C261        C262   1.408       .  A
C262        F263   1.357       .  S
C267        C684   1.406       .  A
C267        C688   1.408   1_545  A
C267        H274   1.083       .  S
C268        C478   1.489   1_554  S
C268        C269   1.407       .  A
C268        C683   1.407   1_554  A
C269        C270   1.402   1_545  A
C269        F276   1.358       .  S
C270        C271   1.408       .  A
C270        H275   1.083       .  S
C271        C272   1.408       .  A
C272        C683   1.408   1_564  A
C272        F689   1.357   1_554  S
F273        C688   1.357       .  S
C277        C278   1.410       .  A
C277        C282   1.397       .  A
C277        H284   1.083       .  S
C278        C279   1.404       .  A
C279        C280   1.405       .  A
C279        F286   1.357       .  S
C280        C281   1.409       .  A
C280        H285   1.081       .  S
C281        C282   1.400       .  A
C282        F283   1.358       .  S
C287        C288   1.407       .  A
C287        C292   1.398       .  A
C287        H294   1.081       .  S
C288        C289   1.404       .  A
C289        C290   1.400       .  A
C289        F296   1.358       .  S
C290        C291   1.407       .  A
C290        H295   1.083       .  S
C291        C292   1.401       .  A
C292        F293   1.357       .  S
C297        C298   1.407       .  A
C297        C302   1.405       .  A
C297        H304   1.083       .  S
C298        C299   1.416       .  A
C299        C300   1.408       .  A
C299        F306   1.357       .  S
C300        C301   1.406       .  A
C300        H305   1.083       .  S
C301        C302   1.413       .  A
C302        F303   1.357       .  S
C307        C312   1.391       .  A
C307       C1140   1.396       .  A
C307        H314   1.084       .  S
C308       C1139   1.397       .  A
C308        C725   1.413   1_554  A
C309        C724   1.415       .  A
C309       C1142   1.413       .  A
C309        F316   1.357       .  S
C310        C311   1.406       .  A
C310       C1141   1.413       .  A
C310        H315   1.083       .  S
C311        C728   1.409       .  A
C312        C727   1.407       .  A
C312        F313   1.351       .  S
C317        C322   1.390       .  A
C317        C734   1.407       .  A
C317        H324   1.078       .  S
C318        C319   1.405       .  A
C318        C733   1.405   1_554  A
C319        C320   1.410       .  A
C319        F326   1.357       .  S
C320        C737   1.412   1_554  A
C320        H325   1.083       .  S
C321        C322   1.403       .  A
C321        C736   1.412       .  A
C322        F323   1.359       .  S
C327        C328   1.411       .  A
C327       C1164   1.408   1_455  A
C327       H1166   1.084   1_455  S
C328        C329   1.410       .  A
C329        C330   1.402       .  A
C329        F336   1.357       .  S
C330       C1163   1.408   1_455  A
C330        H335   1.084       .  S
C331        C332   1.409       .  A
C331       C1162   1.408       .  A
C332       C1159   1.407       .  A
C332        F333   1.357       .  S
H334       C1159   1.084       .  S
C337        C338   1.409       .  A
C337        C342   1.404       .  A
C337        H344   1.081       .  S
C338        C339   1.401       .  A
C339        C340   1.398       .  A
C339        F346   1.358       .  S
C340        C341   1.408       .  A
C340        H345   1.082       .  S
C341        C342   1.403       .  A
C342        F343   1.357       .  S
C347        C348   1.405       .  A
C347        C352   1.395       .  A
C347        H354   1.084       .  S
C348        C349   1.401       .  A
C349        C350   1.399       .  A
C349        F356   1.358       .  S
C350        C351   1.409       .  A
C350        H355   1.083       .  S
C351        C352   1.401       .  A
C352        F353   1.357       .  S
C357        C362   1.404       .  A
C357       C1190   1.408   1_455  A
C357        H364   1.084       .  S
C358        C359   1.409       .  A
C358       C1189   1.408       .  A
C359       C1192   1.401       .  A
C359        F366   1.358       .  S
C360        C361   1.407       .  A
C360       C1191   1.402   1_455  A
C360       H1197   1.084       .  S
C361        C362   1.409       .  A
C362        F363   1.357       .  S
H365       C1192   1.084       .  S
C367       C1200   1.400   1_455  A
C367        C788   1.399       .  A
C367       H1206   1.084       .  S
C368       C1199   1.400       .  A
C368       C1617   1.411       .  A
C369        C370   1.407       .  A
C369       C1616   1.409   1_454  A
C369        F376   1.357   1_455  S
C370        C371   1.405       .  A
C370        H375   1.083       .  S
C371        C372   1.411   1_554  A
C372        C783   1.402       .  A
C372        F789   1.356       .  S
F373        C788   1.356       .  S
H374       C1199   1.084       .  S
C377        C378   1.399       .  A
C377        C382   1.395       .  A
C377        H384   1.081       .  S
C378        C795   1.407       .  A
C379        C380   1.403       .  A
C379        C794   1.406   1_554  A
C379        F386   1.354       .  S
C380        C381   1.401       .  A
C380        H385   1.083       .  S
C381        C798   1.408   1_554  A
C382        C797   1.408       .  A
C382        F383   1.358       .  S
C387        C388   1.408       .  A
C387        C392   1.403       .  A
C387        H810   1.083       .  S
C388        C434   1.491       .  S
C388        C389   1.409   1_556  A
C389        C390   1.403       .  A
C389        F396   1.357       .  S
C390        C391   1.408       .  A
C390        H395   1.083       .  S
C391        C392   1.408   1_554  A
C392        F393   1.357       .  S
H394        C803   1.083       .  S
C397        C398   1.401       .  A
C397        C402   1.403       .  A
C397        H404   1.084       .  S
C398        C399   1.410       .  A
C399        C400   1.404       .  A
C399        F406   1.357       .  S
C400        C401   1.402       .  A
C400        H405   1.083       .  S
C401        C402   1.413       .  A
C402        F403   1.357       .  S
C407        C408   1.408       .  A
C407        C412   1.393       .  A
C407        H414   1.080       .  S
C408        C409   1.407       .  A
C409        C410   1.401       .  A
C409        F416   1.357       .  S
C410        C411   1.406       .  A
C410        H415   1.084       .  S
C411        C412   1.398       .  A
C412        F413   1.358       .  S
O417        C425   1.274       .  A
O418        C419   1.257       .  A
C419        O420   1.265       .  A
C419        C784   1.476       .  S
O420       Cr436   2.022       .  S
O421        C422   1.263       .  A
O421       Cr436   1.990       .  S
C422        O423   1.267       .  A
C422        C817   1.478       .  S
O423       Cr437   2.013       .  S
O424        C425   1.265       .  A
O424       Cr437   1.981       .  S
C425        C774   1.494       .  S
O426       Cr435   1.988       .  S
O427        C428   1.271       .  A
O427       Cr435   2.026       .  S
C428        O429   1.258       .  A
C428        C824   1.481       .  S
O430        C431   1.268       .  A
O430       Cr436   2.008       .  S
C431        O432   1.263       .  A
C431        C794   1.470       .  S
O432       Cr437   1.992       .  S
O433        C434   1.264       .  A
O433       Cr437   2.013       .  S
Cr436       O438   1.768       .  S
Cr437       O438   1.771       .  S
O439        C447   1.274       .  A
O439       Cr457   2.021       .  S
O440        C441   1.257       .  A
O440       Cr457   1.966       .  S
C441        O442   1.260       .  A
C441        C724   1.484       .  S
O442       Cr458   2.016       .  S
O443        C444   1.265       .  A
O443       Cr458   1.986       .  S
C444        O445   1.266       .  A
C444        C757   1.467       .  S
O445       Cr459   1.997       .  S
O446        C447   1.271       .  A
O446       Cr459   2.006       .  S
C447        C747   1.508       .  S
O448        C456   1.257       .  A
O448       Cr457   1.986       .  S
O449        C450   1.269       .  A
C450        O451   1.258       .  A
C450        C767   1.470       .  S
O452        C453   1.260       .  A
O452       Cr458   1.980       .  S
C453        O454   1.272       .  A
C453        C734   1.478       .  S
O454       Cr459   2.026       .  S
O455        C456   1.263       .  A
O455       Cr459   2.014       .  S
C456        C807   1.493       .  S
Cr457       O460   1.763       .  S
Cr458       O460   1.776       .  S
Cr459       O460   1.774       .  S
O461        C469   1.269       .  A
O462        C463   1.257       .  A
C463        O464   1.261   1_556  A
C463        C737   1.486       .  S
O464       Cr480   2.014   1_554  S
O465        C466   1.267       .  A
O465       Cr480   2.002       .  S
C466        O467   1.267       .  A
C466        C707   1.489       .  S
O467       Cr481   2.017       .  S
O468        C469   1.269       .  A
O468       Cr481   1.997       .  S
C469        C714   1.495       .  S
O470       Cr479   1.976       .  S
O471        C472   1.273       .  A
O471       Cr479   2.038       .  S
C472        O473   1.259       .  A
C472        C697   1.490       .  S
O474        C475   1.262       .  A
O474       Cr480   1.987       .  S
C475        O476   1.268       .  A
C475        C727   1.474   1_556  S
O476       Cr481   2.011       .  S
O477        C478   1.264       .  A
O477       Cr481   2.014       .  S
Cr480       O482   1.776       .  S
Cr481       O482   1.778       .  S
O483        C491   1.269       .  A
O483       Cr501   1.984       .  S
O484        C485   1.264       .  A
O484       Cr501   1.998       .  S
C485        O486   1.265       .  A
C485        C797   1.476       .  S
O486       Cr502   2.001       .  S
O487        C488   1.261       .  A
O487       Cr502   2.011       .  S
C488        O489   1.257       .  A
C488        C674   1.476       .  S
O489       Cr503   1.980       .  S
O490        C491   1.277       .  A
O490       Cr503   2.032       .  S
C491        C654   1.499       .  S
O492        C500   1.258       .  A
O492       Cr501   1.992       .  S
O493        C494   1.268       .  A
C494        O495   1.261       .  A
C494        C664   1.472       .  S
O496        C497   1.258       .  A
O496       Cr502   1.961       .  S
C497        O498   1.272       .  A
C497        C787   1.482       .  S
O498       Cr503   2.032       .  S
O499        C500   1.258       .  A
O499       Cr503   1.997       .  S
C500        C687   1.484       .  S
Cr501       O504   1.775       .  S
Cr502       O504   1.775       .  S
Cr503       O504   1.776       .  S
O505        C513   1.276       .  A
O505       Cr523   2.033       .  S
O506        C507   1.259       .  A
O506       Cr523   1.977       .  S
C507        O508   1.260       .  A
C507        C634   1.479       .  S
O508       Cr524   2.007       .  S
O509        C510   1.268       .  A
O509       Cr524   2.006       .  S
C510        O511   1.263       .  A
C510        C694   1.479       .  S
O511       Cr525   2.004       .  S
O512        C513   1.270       .  A
O512       Cr525   1.997       .  S
C513        C744   1.508       .  S
O514        C522   1.260       .  A
O514       Cr523   1.990       .  S
O515        C516   1.273       .  A
O515       Cr523   2.039       .  S
C516        O517   1.260       .  A
C516        C704   1.486       .  S
O517       Cr524   1.975       .  S
O518        C519   1.262       .  A
O518       Cr524   1.984       .  S
C519        O520   1.267       .  A
C519        C627   1.472       .  S
O520       Cr525   2.010       .  S
O521        C522   1.259       .  A
O521       Cr525   1.992       .  S
C522        C644   1.487       .  S
Cr523       O526   1.772       .  S
Cr524       O526   1.772       .  S
Cr525       O526   1.776       .  S
O527        C535   1.273       .  A
O527       Cr545   2.028       .  S
O528        C529   1.258       .  A
O528       Cr545   1.974       .  S
C529        O530   1.257       .  A
C529        C614   1.471       .  S
O530       Cr546   1.995       .  S
O531        C532   1.262       .  A
O531       Cr546   1.980       .  S
C532        O533   1.267       .  A
C532        C667   1.458       .  S
O533       Cr547   2.002       .  S
O534        C535   1.267       .  A
O534       Cr547   1.989       .  S
C535        C777   1.502       .  S
O536        C544   1.259       .  A
O536       Cr545   1.983       .  S
O537        C538   1.273       .  A
O537       Cr545   2.040       .  S
C538        O539   1.258       .  A
C538        C677   1.487       .  S
O539       Cr546   1.963       .  S
O540        C541   1.257       .  A
O540       Cr546   1.977       .  S
C541        O542   1.269       .  A
C541        C604   1.476       .  S
O542       Cr547   2.021       .  S
O543        C544   1.262       .  A
O543       Cr547   2.002       .  S
C544        C647   1.477       .  S
Cr545       O548   1.769       .  S
Cr546       O548   1.769       .  S
Cr547       O548   1.772       .  S
O549        C557   1.268       .  A
O549       Cr567   2.006       .  S
O550        C551   1.260       .  A
O550       Cr567   1.982       .  S
C551        O552   1.260       .  A
C551        C624   1.479       .  S
O552       Cr568   2.005       .  S
O553        C554   1.265       .  A
O553       Cr568   1.995       .  S
C554        O555   1.264       .  A
C554        C764   1.475       .  S
O555       Cr569   1.995       .  S
O556        C557   1.268       .  A
O556       Cr569   1.994       .  S
C557        C717   1.489       .  S
O558        C566   1.260       .  A
O558       Cr567   1.997       .  S
O559        C560   1.265       .  A
O559       Cr567   2.007       .  S
C560        O561   1.257       .  A
C560        C754   1.464       .  S
O561       Cr568   1.963       .  S
O562        C563   1.261       .  A
O562       Cr568   1.984       .  S
C563        O564   1.270       .  A
C563        C637   1.475       .  S
O564       Cr569   2.015       .  S
O565        C566   1.262       .  A
O565       Cr569   2.002       .  S
C566        C594   1.484       .  S
Cr567       O570   1.771       .  S
Cr568       O570   1.771       .  S
Cr569       O570   1.771       .  S
O571        C579   1.272       .  A
O571       Cr589   2.023       .  S
O572        C573   1.257       .  A
O572       Cr589   1.969       .  S
C573        O574   1.256       .  A
C573        C607   1.478       .  S
O574       Cr590   2.006       .  S
O575        C576   1.267       .  A
O575       Cr590   1.992       .  S
C576        O577   1.269       .  A
C576        C827   1.472       .  S
O577       Cr591   2.011       .  S
O578        C579   1.265       .  A
O578       Cr591   1.983       .  S
C579        C657   1.499       .  S
O580        C588   1.258       .  A
O580       Cr589   1.976       .  S
O581        C582   1.273       .  A
O581       Cr589   2.033       .  S
C582        O583   1.259       .  A
C582        C814   1.477       .  S
O583       Cr590   1.966       .  S
O584        C585   1.258       .  A
O584       Cr590   1.979       .  S
C585        O586   1.268       .  A
C585        C617   1.475       .  S
O586       Cr591   2.017       .  S
O587        C588   1.265       .  A
O587       Cr591   2.018       .  S
C588        C597   1.493       .  S
Cr589       O592   1.766       .  S
Cr590       O592   1.770       .  S
Cr591       O592   1.775       .  S
C593        C594   1.404       .  A
C593        C598   1.398   1_545  A
C593        H600   1.084       .  S
C594        C595   1.407       .  A
C595        C596   1.407   1_545  A
C595        F602   1.357       .  S
C596        C597   1.411       .  A
C596        H601   1.083       .  S
C597        C598   1.410       .  A
C598        F599   1.357       .  S
C603        C604   1.405       .  A
C603        C608   1.411       .  A
C603        H610   1.083       .  S
C604        C605   1.408       .  A
C605        C606   1.382       .  A
C605        F612   1.352       .  S
C606        C607   1.394       .  A
C606        H611   1.084       .  S
C607        C608   1.415       .  A
C608        F609   1.358       .  S
C613        C614   1.395   1_655  A
C613       C1450   1.387       .  A
C613        H620   1.084   1_655  S
C614        C615   1.411       .  A
C615       C1448   1.405   1_455  A
C615        F622   1.357       .  S
C616       C1447   1.410       .  A
C616        C617   1.405       .  A
C616        H621   1.083       .  S
C617        C618   1.408       .  A
C618       C1445   1.384       .  A
C618        F619   1.354       .  S
C623        C624   1.410       .  A
C623        C628   1.406       .  A
C623        H630   1.083       .  S
C624        C625   1.402       .  A
C625        C626   1.393       .  A
C625        F632   1.358       .  S
C626        C627   1.405       .  A
C626        H631   1.082       .  S
C627        C628   1.404       .  A
C628        F629   1.357       .  S
C633        C634   1.398   1_655  A
C633       C1470   1.391       .  A
C633        H640   1.084       .  S
C634        C635   1.413       .  A
C635       C1468   1.408   1_455  A
C635        F642   1.358       .  S
C636       C1467   1.408       .  A
C636        C637   1.404       .  A
C636        H641   1.083       .  S
C637        C638   1.407       .  A
C638       C1465   1.389       .  A
C638        F639   1.353       .  S
C643        C644   1.405       .  A
C643        C648   1.399       .  A
C643        H650   1.082       .  S
C644        C645   1.414       .  A
C645        C646   1.399       .  A
C645        F652   1.358       .  S
C646        C647   1.400       .  A
C646        H651   1.083       .  S
C647        C648   1.408       .  A
C648        F649   1.358       .  S
C653        C654   1.407       .  A
C653        C658   1.402       .  A
C653        H660   1.083       .  S
C654        C655   1.412       .  A
C655        C656   1.407       .  A
C655        F662   1.357       .  S
C656        C657   1.409       .  A
C656        H661   1.083       .  S
C657        C658   1.412       .  A
C658        F659   1.357       .  S
C663        C664   1.403       .  A
C663        C668   1.404       .  A
C663        H670   1.083       .  S
C664        C665   1.410       .  A
C665        C666   1.388       .  A
C665        F672   1.356       .  S
C666        C667   1.392       .  A
C666        H671   1.084       .  S
C667        C668   1.407       .  A
C668        F669   1.357       .  S
C673        C674   1.407       .  A
C673        C678   1.407       .  A
C673        H680   1.083       .  S
C674        C675   1.400       .  A
C675        C676   1.398       .  A
C675        F682   1.357       .  S
C676        C677   1.408       .  A
C676        H681   1.080       .  S
C677        C678   1.408       .  A
C678        F679   1.357       .  S
C683        H690   1.083       .  S
C684        C685   1.404       .  A
C685        C686   1.395   1_545  A
C685        F692   1.358       .  S
C686        C687   1.406       .  A
C686        H691   1.083       .  S
C687        C688   1.408       .  A
C693        C694   1.409       .  A
C693        C698   1.405       .  A
C693        H700   1.083       .  S
C694        C695   1.400       .  A
C695        C696   1.401       .  A
C695        F702   1.357       .  S
C696        C697   1.410       .  A
C696        H701   1.081       .  S
C697        C698   1.407       .  A
C698        F699   1.357       .  S
C703        C704   1.408       .  A
C703        C708   1.405       .  A
C703        H710   1.082       .  S
C704        C705   1.406       .  A
C705        C706   1.405       .  A
C705        F712   1.358       .  S
C706        C707   1.410       .  A
C706        H711   1.083       .  S
C707        C708   1.404       .  A
C708        F709   1.357       .  S
C713        C714   1.406       .  A
C713        C718   1.402       .  A
C713        H720   1.083       .  S
C714        C715   1.415       .  A
C715        C716   1.402       .  A
C715        F722   1.357       .  S
C716        C717   1.403       .  A
C716        H721   1.083       .  S
C717        C718   1.412       .  A
C718        F719   1.358       .  S
C723       C1556   1.397       .  A
C723        C728   1.384       .  A
C723        H730   1.084       .  S
C724       C1555   1.398       .  A
C725       C1558   1.409       .  A
C725        F732   1.357       .  S
C726       C1557   1.407       .  A
C726        C727   1.403   1_556  A
C726        H731   1.083       .  S
C728        F729   1.355       .  S
C733        C738   1.393       .  A
C733        H740   1.082       .  S
C734        C735   1.403       .  A
C735        C736   1.408       .  A
C735        F742   1.356       .  S
C736        H741   1.082       .  S
C737        C738   1.404       .  A
C738        F739   1.358       .  S
C743        C744   1.411       .  A
C743       C1580   1.409   1_455  A
C743       H1582   1.084       .  S
C744        C745   1.413       .  A
C745        C746   1.407       .  A
C745        F752   1.357       .  S
C746       C1579   1.407   1_455  A
C746        H751   1.084       .  S
C747       C1578   1.411       .  A
C747        C748   1.412       .  A
C748       C1575   1.411       .  A
C748        F749   1.357       .  S
H750       C1575   1.084       .  S
C753        C754   1.405       .  A
C753        C758   1.397       .  A
C753        H760   1.080       .  S
C754        C755   1.400       .  A
C755        C756   1.393       .  A
C755        F762   1.358       .  S
C756        C757   1.407       .  A
C756        H761   1.082       .  S
C757        C758   1.401       .  A
C758        F759   1.357       .  S
C763        C764   1.402       .  A
C763        C768   1.402       .  A
C763        H770   1.083       .  S
C764        C765   1.411       .  A
C765        C766   1.395       .  A
C765        F772   1.358       .  S
C766        C767   1.398       .  A
C766        H771   1.084       .  S
C767        C768   1.408       .  A
C768        F769   1.356       .  S
C773       C1606   1.405   1_455  A
C773        C778   1.401       .  A
C773        H780   1.084       .  S
C774       C1605   1.407       .  A
C774        C775   1.412       .  A
C775       C1608   1.403       .  A
C775        F782   1.357       .  S
C776       C1607   1.409   1_455  A
C776        C777   1.412       .  A
C776       H1613   1.084       .  S
C777        C778   1.412       .  A
C778        F779   1.357       .  S
H781       C1608   1.084       .  S
C783       C1616   1.400   1_455  A
C783       H1622   1.083       .  S
C784       C1615   1.399       .  A
C784       C1201   1.409   1_556  A
C785       C1200   1.408   1_455  A
C785        C786   1.404       .  A
C785        F792   1.355   1_455  S
C786        C787   1.403       .  A
C786        H791   1.083       .  S
C787        C788   1.410       .  A
H790       C1615   1.084       .  S
C793        C794   1.399       .  A
C793        C798   1.397       .  A
C793        H800   1.083       .  S
C795        C796   1.406       .  A
C795        F802   1.355       .  S
C796        C797   1.403       .  A
C796        H801   1.082       .  S
C798        F799   1.358       .  S
C803        C804   1.407       .  A
C803        C808   1.403       .  A
C804        C805   1.410       .  A
C805        C806   1.404       .  A
C805        F812   1.357       .  S
C806        C807   1.408       .  A
C806        H811   1.083       .  S
C807        C808   1.410       .  A
C808        F809   1.357       .  S
C813        C814   1.401       .  A
C813        C818   1.399       .  A
C813        H820   1.084       .  S
C814        C815   1.409       .  A
C815        C816   1.402       .  A
C815        F822   1.357       .  S
C816        C817   1.402       .  A
C816        H821   1.083       .  S
C817        C818   1.409       .  A
C818        F819   1.358       .  S
C823        C824   1.409       .  A
C823        C828   1.399       .  A
C823        H830   1.081       .  S
C824        C825   1.405       .  A
C825        C826   1.399       .  A
C825        F832   1.357       .  S
C826        C827   1.405       .  A
C826        H831   1.084       .  S
C827        C828   1.401       .  A
C828        F829   1.358       .  S
O833        C841   1.274       .  A
O833      Cr1267   2.026       .  S
O834        C835   1.255       .  A
O834      Cr1267   1.970       .  S
C835        O836   1.265       .  A
C835       C1200   1.475       .  S
O836       Cr852   2.026       .  S
O837        C838   1.267       .  A
O837       Cr852   2.005       .  S
C838        O839   1.265       .  A
C838       C1233   1.488       .  S
O839       Cr853   2.004       .  S
O840        C841   1.265       .  A
O840       Cr853   1.979       .  S
C841       C1190   1.494       .  S
O842       C1266   1.258   1_554  A
O842       Cr851   1.985   1_554  S
O843        C844   1.272       .  A
O843       Cr851   2.027   1_554  S
C844        O845   1.258       .  A
C844       C1240   1.483       .  S
O845      Cr1268   1.958   1_554  S
O846        C847   1.268       .  A
O846       Cr852   2.001       .  S
C847        O848   1.265       .  A
C847       C1210   1.467       .  S
O848       Cr853   1.995       .  S
O849        C850   1.262       .  A
O849       Cr853   2.010       .  S
C850       O1258   1.258       .  A
C850       C1636   1.489       .  S
Cr851      O1249   2.018       .  S
Cr851      O1250   1.977       .  S
Cr851      O1270   1.772       .  S
Cr852      O1261   1.966       .  S
Cr852       O854   1.771       .  S
Cr853       O854   1.771       .  S
O854      Cr1267   1.768       .  S
O855        C863   1.272       .  A
O855       Cr873   2.013       .  S
O856        C857   1.259       .  A
O856       Cr873   1.983       .  S
C857        O858   1.257       .  A
C857       C1140   1.477   1_655  S
O858       Cr874   1.999       .  S
O859        C860   1.266       .  A
O859       Cr874   1.991       .  S
C860        O861   1.266       .  A
C860       C1173   1.472       .  S
O861       Cr875   1.999       .  S
O862        C863   1.269       .  A
O862       Cr875   1.998       .  S
C863       C1163   1.497       .  S
O864        C872   1.259       .  A
O864       Cr873   1.993       .  S
O865        C866   1.272       .  A
O865      Cr1289   2.029       .  S
C866        O867   1.256       .  A
C866       C1183   1.488       .  S
O867      Cr1290   1.946       .  S
O868        C869   1.258       .  A
O868       Cr874   1.978       .  S
C869        O870   1.271       .  A
C869       C1150   1.476       .  S
O870       Cr875   2.024       .  S
O871        C872   1.262       .  A
O871       Cr875   2.011       .  S
C872       C1223   1.491       .  S
Cr873      O1281   2.019   1_554  S
Cr873       O876   1.771       .  S
Cr874      O1283   1.955   1_554  S
Cr874       O876   1.773       .  S
Cr875       O876   1.775       .  S
O877        C885   1.270       .  A
O877      Cr1311   2.010       .  S
O878        C879   1.256       .  A
O878      Cr1311   1.975       .  S
C879        O880   1.262       .  A
C879       C1153   1.490       .  S
O880       Cr896   2.019       .  S
O881        C882   1.268       .  A
O881       Cr896   2.004       .  S
C882        O883   1.266       .  A
C882       C1123   1.482       .  S
O883       Cr897   2.011       .  S
O884        C885   1.269       .  A
O884       Cr897   1.995       .  S
C885       C1130   1.495       .  S
O886       C1310   1.258   1_554  A
O886       Cr895   1.977   1_554  S
O887        C888   1.267       .  A
O887       Cr895   2.012   1_554  S
C888        O889   1.257       .  A
C888       C1113   1.470       .  S
O889      Cr1312   1.966   1_554  S
O890        C891   1.263       .  A
O890       Cr896   1.989       .  S
C891        O892   1.269       .  A
C891       C1143   1.481       .  S
O892       Cr897   2.016       .  S
O893        C894   1.262       .  A
O893       Cr897   2.010       .  S
C894       O1302   1.258       .  A
C894       C1516   1.484       .  S
Cr895      O1293   2.008       .  S
Cr895      O1294   1.976       .  S
Cr895      O1314   1.773       .  S
Cr896      O1305   1.973       .  S
Cr896       O898   1.774       .  S
Cr897       O898   1.780       .  S
O898      Cr1311   1.774       .  S
O899        C907   1.268       .  A
O899       Cr917   1.973       .  S
O900        C901   1.264   1_556  A
O900       Cr917   1.999   1_556  S
C901        O902   1.266       .  A
C901       C1213   1.485       .  S
O902       Cr918   2.010       .  S
O903        C904   1.257       .  A
O903       Cr918   1.988       .  S
C904        O905   1.255       .  A
C904       C1090   1.457       .  S
O905       Cr919   1.967       .  S
O906        C907   1.279       .  A
O906       Cr919   2.037       .  S
C907       C1070   1.497       .  S
O908        C916   1.256       .  A
O908       Cr917   1.999       .  S
O909        C910   1.271       .  A
O909      Cr1333   2.001       .  S
C910        O911   1.266       .  A
C910       C1080   1.473       .  S
O911      Cr1334   1.984       .  S
O912        C913   1.260       .  A
O912       Cr918   1.966       .  S
C913        O914   1.270       .  A
C913       C1203   1.484       .  S
O914       Cr919   2.027       .  S
O915        C916   1.252       .  A
O915       Cr919   1.989       .  S
C916       C1103   1.474       .  S
Cr917      O1325   2.009   1_554  S
Cr917       O920   1.774       .  S
Cr918      O1327   1.976   1_554  S
Cr918       O920   1.773       .  S
Cr919       O920   1.777       .  S
O921        C929   1.275       .  A
O921       Cr939   2.030       .  S
O922        C923   1.257       .  A
O922       Cr939   1.970       .  S
C923        O924   1.259       .  A
C923       C1050   1.476       .  S
O924       Cr940   2.002       .  S
O925        C926   1.264       .  A
O925       Cr940   1.995       .  S
C926        O927   1.263       .  A
C926       C1110   1.470       .  S
O927       Cr941   1.991       .  S
O928        C929   1.268       .  A
O928       Cr941   1.989       .  S
C929       C1160   1.501       .  S
O930        C938   1.259       .  A
O930       Cr939   1.986       .  S
O931        C932   1.274       .  A
O931       Cr939   2.039       .  S
C932        O933   1.258       .  A
C932       C1120   1.488       .  S
O933       Cr940   1.968       .  S
O934        C935   1.261       .  A
O934       Cr940   1.981       .  S
C935        O936   1.268       .  A
C935       C1043   1.469       .  S
O936       Cr941   2.010       .  S
O937        C938   1.259       .  A
O937       Cr941   1.993       .  S
C938       C1060   1.483       .  S
Cr939       O942   1.768       .  S
Cr940       O942   1.773       .  S
Cr941       O942   1.773       .  S
O943        C951   1.269       .  A
O943       Cr961   2.011       .  S
O944        C945   1.259       .  A
O944       Cr961   1.971       .  S
C945        O946   1.260       .  A
C945       C1030   1.478       .  S
O946       Cr962   2.009       .  S
O947        C948   1.260       .  A
O947       Cr962   1.977       .  S
C948        O949   1.266       .  A
C948       C1083   1.456       .  S
O949       Cr963   1.994       .  S
O950        C951   1.266       .  A
O950       Cr963   1.991       .  S
C951       C1193   1.492       .  S
O952        C960   1.260       .  A
O952       Cr961   1.983       .  S
O953        C954   1.268       .  A
O953       Cr961   2.019       .  S
C954        O955   1.255       .  A
C954       C1093   1.468       .  S
O955       Cr962   1.954       .  S
O956        C957   1.262       .  A
O956       Cr962   1.989       .  S
C957        O958   1.267       .  A
C957       C1020   1.478       .  S
O958       Cr963   2.013       .  S
O959        C960   1.262       .  A
O959       Cr963   1.998       .  S
C960       C1063   1.479       .  S
Cr961       O964   1.766       .  S
Cr962       O964   1.772       .  S
Cr963       O964   1.770       .  S
O965        C973   1.268       .  A
O965       Cr983   2.007       .  S
O966        C967   1.258       .  A
O966       Cr983   1.978       .  S
C967        O968   1.258       .  A
C967       C1040   1.475       .  S
O968       Cr984   1.999       .  S
O969        C970   1.266       .  A
O969       Cr984   1.994       .  S
C970        O971   1.265       .  A
C970       C1180   1.468       .  S
O971       Cr985   1.996       .  S
O972        C973   1.267       .  A
O972       Cr985   1.991       .  S
C973       C1133   1.490       .  S
O974        C982   1.260       .  A
O974       Cr983   1.992       .  S
O975        C976   1.267       .  A
O975       Cr983   2.015       .  S
C976        O977   1.258       .  A
C976       C1170   1.469       .  S
O977       Cr984   1.965       .  S
O978        C979   1.259       .  A
O978       Cr984   1.979       .  S
C979        O980   1.270       .  A
C979       C1053   1.477       .  S
O980       Cr985   2.020       .  S
O981        C982   1.263       .  A
O981       Cr985   2.008       .  S
C982       C1010   1.488       .  S
Cr983       O986   1.772       .  S
Cr984       O986   1.775       .  S
Cr985       O986   1.772       .  S
O987        C995   1.271       .  A
O987      Cr1005   2.024       .  S
O988        C989   1.256       .  A
O988      Cr1005   1.966       .  S
C989        O990   1.260       .  A
C989       C1023   1.479       .  S
O990      Cr1006   2.017       .  S
O991        C992   1.264       .  A
O991      Cr1006   1.984       .  S
C992        O993   1.268       .  A
C992       C1243   1.465       .  S
O993      Cr1007   2.012       .  S
O994        C995   1.263       .  A
O994      Cr1007   1.984       .  S
C995       C1073   1.500       .  S
O996       C1004   1.260       .  A
O996      Cr1005   1.980       .  S
O997        C998   1.273       .  A
O997      Cr1005   2.035       .  S
C998        O999   1.259       .  A
C998       C1230   1.479       .  S
O999      Cr1006   1.971       .  S
O1000      C1001   1.260       .  A
O1000     Cr1006   1.984       .  S
C1001      O1002   1.265       .  A
C1001      C1033   1.466       .  S
O1002     Cr1007   2.003       .  S
O1003      C1004   1.268       .  A
O1003     Cr1007   2.020       .  S
C1004      C1013   1.494       .  S
Cr1005     O1008   1.764       .  S
Cr1006     O1008   1.772       .  S
Cr1007     O1008   1.773       .  S
C1009      C1010   1.407       .  A
C1009      C1014   1.402   1_545  A
C1009      H1016   1.084       .  S
C1010      C1011   1.406       .  A
C1011      C1012   1.404   1_545  A
C1011      F1018   1.357       .  S
C1012      C1013   1.409       .  A
C1012      H1017   1.083       .  S
C1013      C1014   1.411       .  A
C1014      F1015   1.358       .  S
C1019      C1020   1.406       .  A
C1019      C1024   1.411       .  A
C1019      H1026   1.083       .  S
C1020      C1021   1.406       .  A
C1021      C1022   1.384       .  A
C1021      F1028   1.351       .  S
C1022      C1023   1.397       .  A
C1022      H1027   1.084       .  S
C1023      C1024   1.413       .  A
C1024      F1025   1.357       .  S
C1029      C1030   1.398       .  A
C1029      H1036   1.083       .  S
C1030      C1031   1.413       .  A
C1031      F1038   1.357       .  S
C1032      C1033   1.404       .  A
C1032      H1037   1.083       .  S
C1033      C1034   1.404       .  A
C1034      F1035   1.353       .  S
C1039      C1040   1.411       .  A
C1039      C1044   1.405       .  A
C1039      H1046   1.083       .  S
C1040      C1041   1.400       .  A
C1041      C1042   1.389       .  A
C1041      F1048   1.358       .  S
C1042      C1043   1.404       .  A
C1042      H1047   1.079       .  S
C1043      C1044   1.402       .  A
C1044      F1045   1.357       .  S
C1049      C1050   1.396       .  A
C1049      H1056   1.084       .  S
C1050      C1051   1.412       .  A
C1051      F1058   1.357       .  S
C1052      C1053   1.404       .  A
C1052      H1057   1.083       .  S
C1053      C1054   1.409       .  A
C1054      F1055   1.353       .  S
C1059      C1060   1.403       .  A
C1059      C1064   1.398       .  A
C1059      H1066   1.083       .  S
C1060      C1061   1.412       .  A
C1061      C1062   1.398       .  A
C1061      F1068   1.358       .  S
C1062      C1063   1.402       .  A
C1062      H1067   1.083       .  S
C1063      C1064   1.410       .  A
C1064      F1065   1.358       .  S
C1069      C1070   1.407       .  A
C1069      C1074   1.400       .  A
C1069      H1076   1.083       .  S
C1070      C1071   1.411       .  A
C1071      C1072   1.408       .  A
C1071      F1078   1.357       .  S
C1072      C1073   1.410       .  A
C1072      H1077   1.082       .  S
C1073      C1074   1.411       .  A
C1074      F1075   1.357       .  S
C1079      C1080   1.405       .  A
C1079      C1084   1.405       .  A
C1079      H1086   1.083       .  S
C1080      C1081   1.411       .  A
C1081      C1082   1.383       .  A
C1081      F1088   1.359       .  S
C1082      C1083   1.393       .  A
C1082      H1087   1.084       .  S
C1083      C1084   1.405       .  A
C1084      F1085   1.357       .  S
C1089      C1090   1.402       .  A
C1089      C1094   1.397       .  A
C1089      H1096   1.084       .  S
C1090      C1091   1.398       .  A
C1091      C1092   1.394       .  A
C1091      F1098   1.358       .  S
C1092      C1093   1.406       .  A
C1092      H1097   1.082       .  S
C1093      C1094   1.404       .  A
C1094      F1095   1.358       .  S
C1099      C1516   1.407       .  A
C1099      C1520   1.406   1_545  A
C1099      H1106   1.083       .  S
C1100      C1310   1.486   1_554  S
C1100      C1515   1.409   1_554  A
C1100      C1101   1.409       .  A
C1101      C1102   1.396   1_545  A
C1101      F1108   1.357       .  S
C1102      C1103   1.401       .  A
C1102      H1107   1.084       .  S
C1103      C1104   1.404   1_554  A
C1104      C1515   1.405   1_565  A
C1104      F1521   1.357       .  S
F1105      C1520   1.357       .  S
C1109      C1110   1.407       .  A
C1109      C1114   1.393       .  A
C1109      H1116   1.084       .  S
C1110      C1111   1.402       .  A
C1111      C1112   1.401       .  A
C1111      F1118   1.357       .  S
C1112      C1113   1.408       .  A
C1112      H1117   1.082       .  S
C1113      C1114   1.399       .  A
C1114      F1115   1.358       .  S
C1119      C1120   1.410       .  A
C1119      C1124   1.403       .  A
C1119      H1126   1.081       .  S
C1120      C1121   1.405       .  A
C1121      C1122   1.404       .  A
C1121      F1128   1.357       .  S
C1122      C1123   1.409       .  A
C1122      H1127   1.084       .  S
C1123      C1124   1.402       .  A
C1124      F1125   1.357       .  S
C1129      C1130   1.406       .  A
C1129      C1134   1.403       .  A
C1129      H1136   1.083       .  S
C1130      C1131   1.414       .  A
C1131      C1132   1.402       .  A
C1131      F1138   1.357       .  S
C1132      C1133   1.404       .  A
C1132      H1137   1.083       .  S
C1133      C1134   1.412       .  A
C1134      F1135   1.358       .  S
C1139      C1144   1.391       .  A
C1139      H1146   1.084       .  S
C1140      C1557   1.412   1_554  A
C1141      C1556   1.413       .  A
C1141      F1148   1.357   1_455  S
C1142      C1143   1.407       .  A
C1142      H1147   1.083       .  S
C1143      C1560   1.407       .  A
C1144      C1559   1.408   1_554  A
C1144      F1145   1.351       .  S
C1149      C1566   1.404       .  A
C1149      C1154   1.394       .  A
C1149      H1156   1.066       .  S
C1150      C1565   1.407   1_554  A
C1150      C1151   1.403       .  A
C1151      C1152   1.409       .  A
C1151      F1158   1.357       .  S
C1152      C1569   1.412       .  A
C1152      H1157   1.081       .  S
C1153      C1568   1.413       .  A
C1153      C1154   1.405       .  A
C1154      F1155   1.358       .  S
C1159      C1160   1.410       .  A
C1160      C1161   1.412       .  A
C1161      C1162   1.404       .  A
C1161      F1168   1.357       .  S
C1162      H1167   1.084       .  S
C1163      C1164   1.410       .  A
C1164      F1165   1.357       .  S
C1169      C1170   1.406       .  A
C1169      C1174   1.400       .  A
C1169      H1176   1.082       .  S
C1170      C1171   1.402       .  A
C1171      C1172   1.395       .  A
C1171      F1178   1.358       .  S
C1172      C1173   1.408       .  A
C1172      H1177   1.082       .  S
C1173      C1174   1.402       .  A
C1174      F1175   1.357       .  S
C1179      C1180   1.396       .  A
C1179      C1184   1.389       .  A
C1179      H1186   1.084       .  S
C1180      C1181   1.407       .  A
C1181      C1182   1.408       .  A
C1181      F1188   1.357       .  S
C1182      C1183   1.408       .  A
C1182      H1187   1.083       .  S
C1183      C1184   1.414       .  A
C1184      F1185   1.358       .  S
C1189      C1194   1.404       .  A
C1189      H1196   1.084       .  S
C1190      C1191   1.411       .  A
C1191      F1198   1.358       .  S
C1192      C1193   1.408       .  A
C1193      C1194   1.409       .  A
C1194      F1195   1.357       .  S
C1199      C1620   1.399       .  A
C1201      C1202   1.406       .  A
C1201      F1208   1.356       .  S
C1202      C1203   1.403       .  A
C1202      H1207   1.083       .  S
C1203      C1204   1.409   1_554  A
C1204      C1615   1.397       .  A
C1204      F1621   1.355       .  S
F1205      C1620   1.354       .  S
C1209      C1210   1.398       .  A
C1209      C1214   1.394       .  A
C1209      H1216   1.085       .  S
C1210      C1627   1.407       .  A
C1211      C1626   1.410   1_554  A
C1211      C1212   1.411       .  A
C1211      F1218   1.356       .  S
C1212      C1213   1.405       .  A
C1212      H1217   1.082       .  S
C1213      C1630   1.410   1_554  A
C1214      C1629   1.409       .  A
C1214      F1215   1.358       .  S
C1219      C1220   1.409       .  A
C1219      C1224   1.405       .  A
C1219      H1642   1.083       .  S
C1220      C1266   1.496       .  S
C1220      C1221   1.411   1_556  A
C1221      C1222   1.404       .  A
C1221      F1228   1.358       .  S
C1222      C1223   1.407       .  A
C1222      H1227   1.083       .  S
C1223      C1224   1.407   1_554  A
C1224      F1225   1.357       .  S
H1226      C1635   1.083       .  S
C1229      C1230   1.399       .  A
C1229      C1234   1.398       .  A
C1229      H1236   1.084       .  S
C1230      C1231   1.409       .  A
C1231      C1232   1.406       .  A
C1231      F1238   1.356       .  S
C1232      C1233   1.405       .  A
C1232      H1237   1.083       .  S
C1233      C1234   1.413       .  A
C1234      F1235   1.358       .  S
C1239      C1240   1.410       .  A
C1239      C1244   1.394       .  A
C1239      H1246   1.082       .  S
C1240      C1241   1.408       .  A
C1241      C1242   1.402       .  A
C1241      F1248   1.357       .  S
C1242      C1243   1.404       .  A
C1242      H1247   1.084       .  S
C1243      C1244   1.398       .  A
C1244      F1245   1.358       .  S
O1249      C1257   1.272       .  A
O1250      C1251   1.255       .  A
C1251      O1252   1.264       .  A
C1251      C1616   1.481       .  S
O1252     Cr1268   2.027       .  S
O1253      C1254   1.267       .  A
O1253     Cr1268   1.997       .  S
C1254      O1255   1.268       .  A
C1254      C1649   1.484       .  S
O1255     Cr1269   2.011       .  S
O1256      C1257   1.268       .  A
O1256     Cr1269   1.996       .  S
C1257      C1606   1.494       .  S
O1258     Cr1267   1.984       .  S
O1259      C1260   1.271       .  A
O1259     Cr1267   2.029       .  S
C1260      O1261   1.259       .  A
C1260      C1656   1.484       .  S
O1262      C1263   1.264       .  A
O1262     Cr1268   2.000       .  S
C1263      O1264   1.268       .  A
C1263      C1626   1.478       .  S
O1264     Cr1269   2.014       .  S
O1265      C1266   1.264       .  A
O1265     Cr1269   2.016       .  S
Cr1268     O1270   1.776       .  S
Cr1269     O1270   1.776       .  S
O1271      C1279   1.280       .  A
O1271     Cr1289   2.037       .  S
O1272      C1273   1.256       .  A
O1272     Cr1289   1.963       .  S
C1273      O1274   1.258       .  A
C1273      C1556   1.481   1_655  S
O1274     Cr1290   2.006       .  S
O1275      C1276   1.260       .  A
O1275     Cr1290   1.985       .  S
C1276      O1277   1.262       .  A
C1276      C1589   1.479       .  S
O1277     Cr1291   1.996       .  S
O1278      C1279   1.271       .  A
O1278     Cr1291   1.991       .  S
C1279      C1579   1.501       .  S
O1280      C1288   1.254       .  A
O1280     Cr1289   1.990       .  S
O1281      C1282   1.270       .  A
C1282      O1283   1.259       .  A
C1282      C1599   1.472       .  S
O1284      C1285   1.267       .  A
O1284     Cr1290   1.997       .  S
C1285      O1286   1.273       .  A
C1285      C1566   1.482       .  S
O1286     Cr1291   2.017       .  S
O1287      C1288   1.256       .  A
O1287     Cr1291   1.998       .  S
C1288      C1639   1.489       .  S
Cr1289     O1292   1.772       .  S
Cr1290     O1292   1.780       .  S
Cr1291     O1292   1.781       .  S
O1293      C1301   1.267       .  A
O1294      C1295   1.258       .  A
C1295      O1296   1.261   1_556  A
C1295      C1569   1.483   1_556  S
O1296     Cr1312   2.011   1_554  S
O1297      C1298   1.266       .  A
O1297     Cr1312   1.997       .  S
C1298      O1299   1.267       .  A
C1298      C1539   1.480       .  S
O1299     Cr1313   2.008       .  S
O1300      C1301   1.269       .  A
O1300     Cr1313   1.999       .  S
C1301      C1546   1.497       .  S
O1302     Cr1311   1.977       .  S
O1303      C1304   1.272       .  A
O1303     Cr1311   2.030       .  S
C1304      O1305   1.259       .  A
C1304      C1529   1.486       .  S
O1306      C1307   1.262       .  A
O1306     Cr1312   1.989       .  S
C1307      O1308   1.269       .  A
C1307      C1559   1.479       .  S
O1308     Cr1313   2.015       .  S
O1309      C1310   1.264       .  A
O1309     Cr1313   2.012       .  S
Cr1312     O1314   1.771       .  S
Cr1313     O1314   1.773       .  S
O1315      C1323   1.270       .  A
O1315     Cr1333   1.983       .  S
O1316      C1317   1.261       .  A
O1316     Cr1333   1.998       .  S
C1317      O1318   1.261       .  A
C1317      C1629   1.475       .  S
O1318     Cr1334   1.998       .  S
O1319      C1320   1.260       .  A
O1319     Cr1334   2.001       .  S
C1320      O1321   1.255       .  A
C1320      C1506   1.478       .  S
O1321     Cr1335   1.946       .  S
O1322      C1323   1.284       .  A
O1322     Cr1335   2.055       .  S
C1323      C1486   1.509       .  S
O1324      C1332   1.257       .  A
O1324     Cr1333   2.005       .  S
O1325      C1326   1.270       .  A
C1326      O1327   1.262       .  A
C1326      C1496   1.473       .  S
O1328      C1329   1.259       .  A
O1328     Cr1334   1.967       .  S
C1329      O1330   1.273       .  A
C1329      C1619   1.494       .  S
O1330     Cr1335   2.041       .  S
O1331      C1332   1.253       .  A
O1331     Cr1335   1.991       .  S
C1332      C1519   1.483       .  S
Cr1333     O1336   1.777       .  S
Cr1334     O1336   1.778       .  S
Cr1335     O1336   1.768       .  S
O1337      C1345   1.274       .  A
O1337     Cr1355   2.025       .  S
O1338      C1339   1.257       .  A
O1338     Cr1355   1.972       .  S
C1339      O1340   1.259       .  A
C1339      C1466   1.477       .  S
O1340     Cr1356   2.007       .  S
O1341      C1342   1.268       .  A
O1341     Cr1356   2.009       .  S
C1342      O1343   1.264       .  A
C1342      C1526   1.482       .  S
O1343     Cr1357   2.001       .  S
O1344      C1345   1.272       .  A
O1344     Cr1357   2.006       .  S
C1345      C1576   1.508       .  S
O1346      C1354   1.259       .  A
O1346     Cr1355   1.995       .  S
O1347      C1348   1.271       .  A
O1347     Cr1355   2.027       .  S
C1348      O1349   1.259       .  A
C1348      C1536   1.481       .  S
O1349     Cr1356   1.973       .  S
O1350      C1351   1.261       .  A
O1350     Cr1356   1.982       .  S
C1351      O1352   1.272       .  A
C1351      C1459   1.484       .  S
O1352     Cr1357   2.030       .  S
O1353      C1354   1.260       .  A
O1353     Cr1357   2.003       .  S
C1354      C1476   1.490       .  S
Cr1355     O1358   1.773       .  S
Cr1356     O1358   1.777       .  S
Cr1357     O1358   1.774       .  S
O1359      C1367   1.273       .  A
O1359     Cr1377   2.021       .  S
O1360      C1361   1.259       .  A
O1360     Cr1377   1.968       .  S
C1361      O1362   1.260       .  A
C1361      C1446   1.479       .  S
O1362     Cr1378   2.010       .  S
O1363      C1364   1.258       .  A
O1363     Cr1378   1.970       .  S
C1364      O1365   1.268       .  A
C1364      C1499   1.459       .  S
O1365     Cr1379   2.007       .  S
O1366      C1367   1.265       .  A
O1366     Cr1379   1.980       .  S
C1367      C1609   1.491       .  S
O1368      C1376   1.261       .  A
O1368     Cr1377   1.990       .  S
O1369      C1370   1.269       .  A
O1369     Cr1377   2.037       .  S
C1370      O1371   1.250       .  A
C1370      C1509   1.470       .  S
O1371     Cr1378   1.930       .  S
O1372      C1373   1.263       .  A
O1372     Cr1378   1.992       .  S
C1373      O1374   1.266       .  A
C1373      C1436   1.477       .  S
O1374     Cr1379   2.010       .  S
O1375      C1376   1.263       .  A
O1375     Cr1379   2.007       .  S
C1376      C1479   1.493       .  S
Cr1377     O1380   1.771       .  S
Cr1378     O1380   1.769       .  S
Cr1379     O1380   1.770       .  S
O1381      C1389   1.270       .  A
O1381     Cr1399   2.013       .  S
O1382      C1383   1.259       .  A
O1382     Cr1399   1.978       .  S
C1383      O1384   1.263       .  A
C1383      C1456   1.489       .  S
O1384     Cr1400   2.019       .  S
O1385      C1386   1.261       .  A
O1385     Cr1400   1.977       .  S
C1386      O1387   1.264       .  A
C1386      C1596   1.461       .  S
O1387     Cr1401   2.003       .  S
O1388      C1389   1.269       .  A
O1388     Cr1401   2.001       .  S
C1389      C1549   1.497       .  S
O1390      C1398   1.261       .  A
O1390     Cr1399   1.990       .  S
O1391      C1392   1.268       .  A
O1391     Cr1399   2.021       .  S
C1392      O1393   1.253       .  A
C1392      C1586   1.460       .  S
O1393     Cr1400   1.950       .  S
O1394      C1395   1.264       .  A
O1394     Cr1400   1.992       .  S
C1395      O1396   1.269       .  A
C1395      C1469   1.476       .  S
O1396     Cr1401   2.012       .  S
O1397      C1398   1.264       .  A
O1397     Cr1401   2.011       .  S
C1398      C1426   1.490       .  S
Cr1399     O1402   1.767       .  S
Cr1400     O1402   1.769       .  S
Cr1401     O1402   1.775       .  S
O1403      C1411   1.274       .  A
O1403     Cr1421   2.035       .  S
O1404      C1405   1.256       .  A
O1404     Cr1421   1.967       .  S
C1405      O1406   1.257       .  A
C1405      C1439   1.476       .  S
O1406     Cr1422   2.007       .  S
O1407      C1408   1.266       .  A
O1407     Cr1422   1.989       .  S
C1408      O1409   1.269       .  A
C1408      C1659   1.470       .  S
O1409     Cr1423   2.012       .  S
O1410      C1411   1.267       .  A
O1410     Cr1423   1.994       .  S
C1411      C1489   1.512       .  S
O1412      C1420   1.258       .  A
O1412     Cr1421   1.980       .  S
O1413      C1414   1.275       .  A
O1413     Cr1421   2.040       .  S
C1414      O1415   1.258       .  A
C1414      C1646   1.480       .  S
O1415     Cr1422   1.966       .  S
O1416      C1417   1.258       .  A
O1416     Cr1422   1.978       .  S
C1417      O1418   1.267       .  A
C1417      C1449   1.470       .  S
O1418     Cr1423   2.015       .  S
O1419      C1420   1.266       .  A
O1419     Cr1423   2.016       .  S
C1420      C1429   1.489       .  S
Cr1421     O1424   1.765       .  S
Cr1422     O1424   1.774       .  S
Cr1423     O1424   1.773       .  S
C1425      C1426   1.407       .  A
C1425      C1430   1.402   1_545  A
C1425      H1432   1.084       .  S
C1426      C1427   1.408       .  A
C1427      C1428   1.404   1_545  A
C1427      F1434   1.357       .  S
C1428      C1429   1.407       .  A
C1428      H1433   1.084       .  S
C1429      C1430   1.409       .  A
C1430      F1431   1.358       .  S
C1435      C1436   1.405       .  A
C1435      C1440   1.410       .  A
C1435      H1442   1.082       .  S
C1436      C1437   1.407       .  A
C1437      C1438   1.383       .  A
C1437      F1444   1.349       .  S
C1438      C1439   1.395       .  A
C1438      H1443   1.084       .  S
C1439      C1440   1.413       .  A
C1440      F1441   1.357       .  S
C1445      C1446   1.397       .  A
C1445      H1452   1.084       .  S
C1446      C1447   1.414       .  A
C1447      F1454   1.357       .  S
C1448      C1449   1.403       .  A
C1448      H1453   1.083       .  S
C1449      C1450   1.408       .  A
C1450      F1451   1.352       .  S
C1455      C1456   1.413       .  A
C1455      C1460   1.412       .  A
C1455      H1462   1.082       .  S
C1456      C1457   1.404       .  A
C1457      C1458   1.392       .  A
C1457      F1464   1.358       .  S
C1458      C1459   1.406       .  A
C1458      H1463   1.081       .  S
C1459      C1460   1.405       .  A
C1460      F1461   1.357       .  S
C1465      C1466   1.397       .  A
C1465      H1472   1.084       .  S
C1466      C1467   1.412       .  A
C1467      F1474   1.357       .  S
C1468      C1469   1.404       .  A
C1468      H1473   1.083       .  S
C1469      C1470   1.407       .  A
C1470      F1471   1.354       .  S
C1475      C1476   1.404       .  A
C1475      C1480   1.403       .  A
C1475      H1482   1.083       .  S
C1476      C1477   1.411       .  A
C1477      C1478   1.402       .  A
C1477      F1484   1.358       .  S
C1478      C1479   1.406       .  A
C1478      H1483   1.083       .  S
C1479      C1480   1.414       .  A
C1480      F1481   1.357       .  S
C1485      C1486   1.409       .  A
C1485      C1490   1.407       .  A
C1485      H1492   1.083       .  S
C1486      C1487   1.412       .  A
C1487      C1488   1.414       .  A
C1487      F1494   1.357       .  S
C1488      C1489   1.412       .  A
C1488      H1493   1.082       .  S
C1489      C1490   1.413       .  A
C1490      F1491   1.357       .  S
C1495      C1496   1.403       .  A
C1495      C1500   1.405       .  A
C1495      H1502   1.083       .  S
C1496      C1497   1.412       .  A
C1497      C1498   1.385       .  A
C1497      F1504   1.358       .  S
C1498      C1499   1.392       .  A
C1498      H1503   1.085       .  S
C1499      C1500   1.407       .  A
C1500      F1501   1.357       .  S
C1505      C1506   1.401       .  A
C1505      C1510   1.379       .  A
C1505      H1512   1.083       .  S
C1506      C1507   1.413       .  A
C1507      C1508   1.409       .  A
C1507      F1514   1.357       .  S
C1508      C1509   1.404       .  A
C1508      H1513   1.083       .  S
C1509      C1510   1.406       .  A
C1510      F1511   1.359       .  S
C1515      H1522   1.083       .  S
C1516      C1517   1.408       .  A
C1517      C1518   1.399   1_545  A
C1517      F1524   1.358       .  S
C1518      C1519   1.404       .  A
C1518      H1523   1.083       .  S
C1519      C1520   1.408       .  A
C1525      C1526   1.409       .  A
C1525      C1530   1.401       .  A
C1525      H1532   1.083       .  S
C1526      C1527   1.403       .  A
C1527      C1528   1.406       .  A
C1527      F1534   1.357       .  S
C1528      C1529   1.411       .  A
C1528      H1533   1.082       .  S
C1529      C1530   1.403       .  A
C1530      F1531   1.357       .  S
C1535      C1536   1.409       .  A
C1535      C1540   1.405       .  A
C1535      H1542   1.083       .  S
C1536      C1537   1.403       .  A
C1537      C1538   1.399       .  A
C1537      F1544   1.358       .  S
C1538      C1539   1.407       .  A
C1538      H1543   1.083       .  S
C1539      C1540   1.404       .  A
C1540      F1541   1.357       .  S
C1545      C1546   1.404       .  A
C1545      C1550   1.402       .  A
C1545      H1552   1.083       .  S
C1546      C1547   1.415       .  A
C1547      C1548   1.407       .  A
C1547      F1554   1.358       .  S
C1548      C1549   1.407       .  A
C1548      H1553   1.083       .  S
C1549      C1550   1.412       .  A
C1550      F1551   1.357       .  S
C1555      C1560   1.385       .  A
C1555      H1562   1.084       .  S
C1557      F1564   1.357   1_455  S
C1558      C1559   1.404       .  A
C1558      H1563   1.083       .  S
C1560      F1561   1.354       .  S
C1565      C1570   1.393       .  A
C1565      H1572   1.072       .  S
C1566      C1567   1.405       .  A
C1567      C1568   1.413       .  A
C1567      F1574   1.357       .  S
C1568      H1573   1.082       .  S
C1569      C1570   1.403   1_554  A
C1570      F1571   1.359       .  S
C1575      C1576   1.412       .  A
C1576      C1577   1.410       .  A
C1577      C1578   1.408       .  A
C1577      F1584   1.357       .  S
C1578      H1583   1.084       .  S
C1579      C1580   1.410       .  A
C1580      F1581   1.357       .  S
C1585      C1586   1.403       .  A
C1585      C1590   1.400       .  A
C1585      H1592   1.084       .  S
C1586      C1587   1.399       .  A
C1587      C1588   1.392       .  A
C1587      F1594   1.358       .  S
C1588      C1589   1.408       .  A
C1588      H1593   1.083       .  S
C1589      C1590   1.408       .  A
C1590      F1591   1.357       .  S
C1595      C1596   1.406       .  A
C1595      C1600   1.399       .  A
C1595      H1602   1.082       .  S
C1596      C1597   1.396       .  A
C1597      C1598   1.393       .  A
C1597      F1604   1.358       .  S
C1598      C1599   1.407       .  A
C1598      H1603   1.072       .  S
C1599      C1600   1.404       .  A
C1600      F1601   1.358       .  S
C1605      C1610   1.402       .  A
C1605      H1612   1.084       .  S
C1606      C1607   1.409       .  A
C1607      F1614   1.357       .  S
C1608      C1609   1.406       .  A
C1609      C1610   1.409       .  A
C1610      F1611   1.357       .  S
C1617      C1618   1.411       .  A
C1617      F1624   1.356       .  S
C1618      C1619   1.407       .  A
C1618      H1623   1.083       .  S
C1619      C1620   1.410       .  A
C1625      C1626   1.400       .  A
C1625      C1630   1.396       .  A
C1625      H1632   1.081       .  S
C1627      C1628   1.405       .  A
C1627      F1634   1.355       .  S
C1628      C1629   1.402       .  A
C1628      H1633   1.084       .  S
C1630      F1631   1.359       .  S
C1635      C1636   1.409       .  A
C1635      C1640   1.404       .  A
C1636      C1637   1.408       .  A
C1637      C1638   1.400       .  A
C1637      F1644   1.357       .  S
C1638      C1639   1.407       .  A
C1638      H1643   1.083       .  S
C1639      C1640   1.408       .  A
C1640      F1641   1.357       .  S
C1645      C1646   1.399       .  A
C1645      C1650   1.399       .  A
C1645      H1652   1.084       .  S
C1646      C1647   1.411       .  A
C1647      C1648   1.405       .  A
C1647      F1654   1.357       .  S
C1648      C1649   1.403       .  A
C1648      H1653   1.083       .  S
C1649      C1650   1.412       .  A
C1650      F1651   1.357       .  S
C1655      C1656   1.409       .  A
C1655      C1660   1.398       .  A
C1655      H1662   1.079       .  S
C1656      C1657   1.406       .  A
C1657      C1658   1.400       .  A
C1657      F1664   1.356       .  S
C1658      C1659   1.405       .  A
C1658      H1663   1.084       .  S
C1659      C1660   1.400       .  A
C1660      F1661   1.358       .  S
