geometry optimzed in LAMMPS
_audit_creation_date              2020-12-01 
_audit_creation_method            'lammps2cif' 
_symmetry_space_group_name_H-M    'P1' 
_symmetry_Int_Tables_number       1 
_symmetry_cell_setting            triclinic 
loop_ 
_symmetry_equiv_pos_as_xyz 
  x,y,z 
_cell_length_a                    41.10709234 
_cell_length_b                    33.727780495966606 
_cell_length_c                    44.24534486689906 
_cell_angle_alpha                 89.93300549970816 
_cell_angle_beta                  107.40573833703489 
_cell_angle_gamma                 89.97646259111961 
loop_ 
_atom_site_label 
_atom_site_type_symbol 
_atom_site_fract_x 
_atom_site_fract_y 
_atom_site_fract_z 
_atom_site_charge 
O1          O  0.29496841  0.54440797  0.38831231    -0.81000
C2          C  0.37213350  0.60636445  0.31731062     0.98400
O3          O  0.34578513  0.62406341  0.31971644    -0.70100
O4          O  0.29778746  0.57196164  0.31127083    -0.73700
Al5        Al  0.31523153  0.60925389  0.34305287     1.49000
C6          C  0.29369650  0.53505506  0.31107288     0.93600
O7          O  0.37038692  0.49950217  0.36695124    -0.79900
O8          O  0.38472547  0.59181474  0.42476674    -0.73500
Al9        Al  0.33371284  0.52719949  0.37730240     1.90100
O10         O  0.40997311  0.53994774  0.39179270    -0.72500
O11         O  0.38267616  0.64524110  0.37942150    -0.72400
O12         O  0.39227882  0.58779222  0.34060876    -0.78000
O13         O  0.32834332  0.65405073  0.37096208    -0.76200
O14         O  0.34515946  0.57542618  0.36779329    -1.12400
O15         O  0.27856617  0.59862633  0.36048960    -0.71600
C16         C  0.27289688  0.57083967  0.37740710     0.99200
C17         C  0.40141426  0.50632739  0.38041860     0.95600
Al18       Al  0.38856860  0.59002740  0.38283763     1.55600
O19         O  0.30642508  0.51460614  0.33562212    -0.76200
C20         C  0.35810044  0.66805246  0.37720745     0.99700
C21         C  0.37344572  0.56318358  0.43758577     0.94600
O22         O  0.35874166  0.53350283  0.42132830    -0.81500
O23         O  0.45647702  0.54182088  0.12151784    -0.81000
C24         C  0.37776714  0.60394736  0.18967764     0.98400
O25         O  0.40419116  0.62170184  0.18730109    -0.70100
O26         O  0.45372749  0.57204750  0.19545076    -0.73700
Al27       Al  0.43473437  0.60842702  0.16347372     1.49000
C28         C  0.45626906  0.53502252  0.19705000     0.93600
O29         O  0.38057456  0.49755804  0.14066655    -0.79900
O30         O  0.36662521  0.58976199  0.08269878    -0.73500
Al31       Al  0.41724501  0.52525389  0.13120575     1.90100
O32         O  0.34097208  0.53723560  0.11478359    -0.72500
O33         O  0.36654513  0.64320635  0.12816083    -0.72400
O34         O  0.35785268  0.58492340  0.16649290    -0.78000
O35         O  0.42028116  0.65262216  0.13513638    -0.76200
O36         O  0.40531490  0.57363703  0.13967730    -1.12400
O37         O  0.47086317  0.59910160  0.14513531    -0.71600
C38         C  0.47726313  0.56992517  0.12997844     0.99200
C39         C  0.34978676  0.50369417  0.12631548     0.95600
Al40       Al  0.36185056  0.58760066  0.12434172     1.55600
O41         O  0.44279279  0.51342285  0.17340889    -0.76200
C42         C  0.39063140  0.66654288  0.12978970     0.99700
C43         C  0.37863471  0.56117011  0.07036728     0.94600
O44         O  0.39340790  0.53148709  0.08674603    -0.81500
O45         O  0.14511508  0.46632217  0.08519972    -0.81000
C46         C  0.13248175  0.39450354  0.18978778     0.98400
O47         O  0.11153548  0.41237967  0.16629641    -0.70100
O48         O  0.09315281  0.45995132  0.11461947    -0.73700
Al49       Al  0.11460429  0.41005614  0.12380819     1.49000
C50         C  0.10159754  0.49347444  0.12609193     0.93600
O51         O  0.19569544  0.48430305  0.17203777    -0.79900
O52         O  0.22341007  0.39862655  0.14313685    -0.73500
Al53       Al  0.16952903  0.47260314  0.12976972     1.90100
O54         O  0.20770232  0.42582708  0.19414135    -0.72500
O55         O  0.17322102  0.34575195  0.13338610    -0.72400
O56         O  0.15807988  0.37607130  0.18648466    -0.78000
O57         O  0.11951369  0.35492672  0.12710256    -0.76200
O58         O  0.15808430  0.42422041  0.13851109    -1.12400
O59         O  0.11826445  0.40822656  0.08174012    -0.71600
C60         C  0.12972648  0.43685037  0.06897574     0.99200
C61         C  0.20999546  0.46295283  0.19571429     0.95600
Al62       Al  0.18798497  0.38946469  0.16204000     1.55600
O63         O  0.13257221  0.50028660  0.13957190    -0.76200
C64         C  0.14342973  0.33215507  0.12706772     0.99700
C65         C  0.22950614  0.42771271  0.12778583     0.94600
O66         O  0.20872846  0.45601185  0.11969965    -0.81500
O67         O  0.10675521  0.47013663  0.42061577    -0.81000
C68         C  0.11753971  0.39891889  0.31578088     0.98400
O69         O  0.13938468  0.41574840  0.33918828    -0.70100
O70         O  0.15858497  0.46418824  0.39056986    -0.73700
Al71       Al  0.13747922  0.41404145  0.38206154     1.49000
C72         C  0.14966959  0.49764406  0.37909942     0.93600
O73         O  0.05578853  0.48743913  0.33451563    -0.79900
O74         O  0.03139777  0.39883425  0.36900268    -0.73500
Al75       Al  0.08208038  0.47611214  0.37650215     1.90100
O76         O  0.03965008  0.42843337  0.31537587    -0.72500
O77         O  0.08100056  0.34760380  0.37293757    -0.72400
O78         O  0.09088071  0.38227468  0.31870142    -0.78000
O79         O  0.13413762  0.35867185  0.37904164    -0.76200
O80         O  0.09372790  0.42757164  0.36817545    -1.12400
O81         O  0.13468898  0.41267022  0.42455740    -0.71600
C82         C  0.12259116  0.44108511  0.43709765     0.99200
C83         C  0.03866844  0.46544877  0.31251987     0.95600
Al84       Al  0.06352513  0.39224821  0.34614043     1.55600
O85         O  0.11856306  0.50412328  0.36607468    -0.76200
C86         C  0.11080215  0.33471934  0.37796647     0.99700
C87         C  0.02411534  0.42919545  0.38225109     0.94600
O88         O  0.04290880  0.45947779  0.38703713    -0.81500
O89         O  0.35891055  0.96962267  0.16695263    -0.81000
C90         C  0.36605232  0.89801319  0.06072016     0.98400
O91         O  0.38797289  0.91536444  0.08359177    -0.70100
O92         O  0.40955098  0.96296279  0.13461388    -0.73700
Al93       Al  0.38786560  0.91335356  0.12675201     1.49000
C94         C  0.40098946  0.99712644  0.12467132     0.93600
O95         O  0.30657760  0.98757467  0.08080731    -0.79900
O96         O  0.28090763  0.90104243  0.11465249    -0.73500
Al97       Al  0.33346567  0.97631293  0.12285731     1.90100
O98         O  0.29100063  0.92846551  0.06129169    -0.72500
O99         O  0.33058898  0.84871578  0.12070622    -0.72400
O100        O  0.34065733  0.87990897  0.06511914    -0.78000
O101        O  0.38349949  0.85768348  0.12407208    -0.76200
O102        O  0.34431863  0.92758532  0.11412519    -1.12400
O103        O  0.38693118  0.91227309  0.16961535    -0.71600
C104        C  0.37554506  0.94051899  0.18287117     0.99200
C105        C  0.28980491  0.96546100  0.05853305     0.95600
Al106      Al  0.31358448  0.89244290  0.09255890     1.55600
O107        O  0.36991558  0.00442080  0.11234782    -0.76200
C108        C  0.36006075  0.83482053  0.12528752     0.99700
C109        C  0.27440419  0.93165372  0.12807577     0.94600
O110        O  0.29443314  0.96076515  0.13376973    -0.81500
O111        O  0.39660818  0.96778267  0.33253391    -0.81000
C112        C  0.37802697  0.89261643  0.43344831     0.98400
O113        O  0.35872640  0.91135349  0.40974011    -0.70100
O114        O  0.34353572  0.96042742  0.35923564    -0.73700
Al115      Al  0.36472567  0.90999789  0.36833364     1.49000
C116        C  0.35170990  0.99360014  0.37178289     0.93600
O117        O  0.44585498  0.98437208  0.41951475    -0.79900
O118        O  0.47504541  0.90154560  0.39536524    -0.73500
Al119      Al  0.41997278  0.97284564  0.37718071     1.90100
O120        O  0.45323641  0.92689987  0.44370421    -0.72500
O121        O  0.42513157  0.84622580  0.38182459    -0.72400
O122        O  0.40462660  0.87468805  0.43189160    -0.78000
O123        O  0.37048962  0.85465005  0.37121215    -0.76200
O124        O  0.40792496  0.92443908  0.38541587    -1.12400
O125        O  0.37100852  0.90905192  0.32727919    -0.71600
C126        C  0.38287094  0.93822307  0.31554553     0.99200
C127        C  0.45766117  0.96378443  0.44418325     0.95600
Al128      Al  0.43697245  0.89025276  0.41073295     1.55600
O129        O  0.38250593  0.99997769  0.38653858    -0.76200
C130        C  0.39535051  0.83204153  0.37408779     0.99700
C131        C  0.48123133  0.92941867  0.37879119     0.94600
O132        O  0.45937430  0.95588107  0.36743994    -0.81500
O133        O  0.04289330  0.04076473  0.12931086    -0.81000
C134        C  0.12124064  0.10369600  0.06134299     0.98400
O135        O  0.09404330  0.12034162  0.06309881    -0.70100
O136        O  0.04463007  0.07039718  0.05597286    -0.73700
Al137      Al  0.06390775  0.10775585  0.08745805     1.49000
C138        C  0.04375064  0.03321464  0.05460109     0.93600
O139        O  0.12101239  0.99836982  0.11229681    -0.79900
O140        O  0.13147809  0.09174077  0.16833295    -0.73500
Al141      Al  0.08297608  0.02517125  0.12053373     1.90100
O142        O  0.15909779  0.03960012  0.13805629    -0.72500
O143        O  0.13185751  0.14340283  0.12226763    -0.72400
O144        O  0.14148485  0.08558678  0.08502962    -0.78000
O145        O  0.07809980  0.15291775  0.11490855    -0.76200
O146        O  0.09390232  0.07372791  0.11157291    -1.12400
O147        O  0.02872686  0.09886353  0.10689716    -0.71600
C148        C  0.02251866  0.06946314  0.12195091     0.99200
C149        C  0.15156392  0.00580078  0.12690186     0.95600
Al150      Al  0.13699903  0.08874207  0.12701211     1.55600
O151        O  0.05841637  0.01215390  0.07830203    -0.76200
C152        C  0.10786607  0.16654137  0.12090861     0.99700
C153        C  0.11956211  0.06331906  0.18091958     0.94600
O154        O  0.10571858  0.03296134  0.16493725    -0.81500
O155        O  0.20821525  0.04337707  0.36368297    -0.81000
C156        C  0.13220443  0.10402559  0.43502669     0.98400
O157        O  0.15855798  0.12182423  0.43248739    -0.70100
O158        O  0.20734864  0.07165212  0.43854582    -0.73700
Al159      Al  0.18814901  0.10910674  0.40741155     1.49000
C160        C  0.20898480  0.03452041  0.43952000     0.93600
O161        O  0.13205601  0.99946165  0.38313783    -0.79900
O162        O  0.11729167  0.09322149  0.32709537    -0.73500
Al163      Al  0.16887709  0.02716419  0.37365085     1.90100
O164        O  0.09241188  0.04010032  0.35902441    -0.72500
O165        O  0.11983069  0.14500173  0.37401370    -0.72400
O166        O  0.11166026  0.08592501  0.41172267    -0.78000
O167        O  0.17346967  0.15426777  0.38000163    -0.76200
O168        O  0.15783927  0.07528264  0.38335035    -1.12400
O169        O  0.22370981  0.09995641  0.38804535    -0.71600
C170        C  0.22963565  0.07083427  0.37250797     0.99200
C171        C  0.10109714  0.00625360  0.36981335     0.95600
Al172      Al  0.11430969  0.08986819  0.36926156     1.55600
O173        O  0.19495836  0.01370125  0.41551700    -0.76200
C174        C  0.14387038  0.16819179  0.37522143     0.99700
C175        C  0.12840886  0.06487979  0.31377728     0.94600
O176        O  0.14434457  0.03539756  0.32962882    -0.81500
C177        C  0.11924778  0.10070195  0.23005348     0.24400
C178        C  0.12142218  0.06459768  0.21479283    -0.23700
C179        C  0.12320069  0.02895870  0.23169714     0.19300
C180        C  0.12427547  0.02929764  0.26343063     0.24400
C181        C  0.12339646  0.06533456  0.27920701    -0.23600
C182        C  0.12011150  0.10105905  0.26201780     0.19300
F183        F  0.11859972  0.13637892  0.27624970    -0.13600
F184        F  0.11546692  0.13547364  0.21386744    -0.15900
F185        F  0.12610697  0.99403116  0.27869782    -0.15900
F186        F  0.12449772  0.99342351  0.21767762    -0.13600
C187        C  0.13779013  0.07025330  0.01773826     0.24400
C188        C  0.12729483  0.10463436  0.03013331    -0.23700
C189        C  0.11689846  0.13799265  0.01033890     0.19300
C190        C  0.13411133  0.06953263  0.48515005     0.24400
C191        C  0.12708384  0.10399029  0.46643194    -0.23600
C192        C  0.12144073  0.13986903  0.47999682     0.19300
F193        F  0.11550018  0.17363610  0.46244073    -0.13600
F194        F  0.14728093  0.03738589  0.03601935    -0.15900
F195        F  0.14089984  0.03483784  0.47268414    -0.15900
F196        F  0.10684573  0.17177462  0.02167536    -0.13600
C197        C  0.97995044  0.02307751  0.47541322     0.24400
C198        C  0.47897786  0.98248183  0.47368147    -0.23700
C199        C  0.48697201  0.96192206  0.50274987     0.19300
C200        C  0.52975044  0.97824128  0.01784939     0.24400
C201        C  0.02375339  0.01457333  0.02495099    -0.24400
C202        C  0.02010843  0.03348644  0.99575048     0.19300
F203        F  0.03812497  0.06677828  0.99415036    -0.13600
F204        F  0.95506027  0.04502603  0.45519437    -0.15900
F205        F  0.55526889  0.95582513  0.03678123    -0.15900
F206        F  0.47234056  0.92640066  0.50510252    -0.13600
C207        C  0.29357034  0.06927867  0.39335226     0.24400
C208        C  0.26359746  0.06465501  0.36770725    -0.23700
C209        C  0.26557404  0.04311536  0.34113340     0.19300
C210        C  0.29541931  0.02281695  0.34163413     0.24400
C211        C  0.32418207  0.02351030  0.36875024    -0.23600
C212        C  0.32363793  0.04874685  0.39390190     0.19300
F213        F  0.35089978  0.05037558  0.42032925    -0.13600
F214        F  0.29268674  0.08981215  0.41946388    -0.15900
F215        F  0.29540595  0.00027178  0.31620652    -0.15900
F216        F  0.23752306  0.03885506  0.31562982    -0.13600
C217        C  0.01592729  0.95516078  0.33941165     0.24400
C218        C  0.01424873  0.93431587  0.36639737    -0.23700
C219        C  0.04410934  0.93073714  0.39227324     0.19300
C220        C  0.07390040  0.95137533  0.39244153     0.24400
C221        C  0.07412237  0.97596242  0.36683793    -0.23600
C222        C  0.04546918  0.97591165  0.33965380     0.19300
F223        F  0.04524514  0.99824074  0.31402176    -0.13600
F224        F  0.98779240  0.95845885  0.31386299    -0.15900
F225        F  0.10105620  0.95090465  0.41901136    -0.15900
F226        F  0.04316816  0.91161873  0.41902088    -0.13600
C227        C  0.24438669  0.95907633  0.00627041     0.24400
C228        C  0.26818370  0.98280497  0.02865972    -0.23700
C229        C  0.27102737  0.02307369  0.02207420     0.19300
C230        C  0.23176555  0.03507488  0.49830132     0.24400
C231        C  0.22866240  0.01589439  0.46932280    -0.23600
C232        C  0.24665944  0.98060955  0.46902931     0.19300
F233        F  0.24478104  0.96198465  0.44136507    -0.13600
F234        F  0.23987954  0.92023401  0.01205805    -0.15900
F235        F  0.21409115  0.06881109  0.49940601    -0.15900
F236        F  0.29366160  0.04694576  0.04278073    -0.13600
C237        C  0.34158700  0.88818882  0.00153202     0.24400
C238        C  0.36924521  0.89919597  0.02810687    -0.23700
C239        C  0.39928106  0.91312144  0.02284847     0.19300
C240        C  0.36891832  0.93027872  0.47838292     0.24400
C241        C  0.37220977  0.89356191  0.46461934    -0.23600
C242        C  0.37741550  0.85907369  0.48338705     0.19300
F243        F  0.38147938  0.82334669  0.47083076    -0.13600
F244        F  0.31122874  0.87681939  0.00503273    -0.15900
F245        F  0.36550650  0.96418537  0.46112481    -0.15900
F246        F  0.42596095  0.92588405  0.04719908    -0.13600
C247        C  0.38221187  0.90341716  0.23367418     0.24400
C248        C  0.38039951  0.93964935  0.21742301    -0.23700
C249        C  0.38016084  0.97525523  0.23393688     0.19300
C250        C  0.38066305  0.97464960  0.26562791     0.24400
C251        C  0.38128378  0.93841696  0.28163611    -0.23600
C252        C  0.38254341  0.90280295  0.26545236     0.19300
F253        F  0.38477260  0.86736993  0.28053131    -0.13600
F254        F  0.38254354  0.86847364  0.21856330    -0.15900
F255        F  0.37987418  0.00972875  0.28044709    -0.15900
F256        F  0.37949888  0.01089733  0.21942973    -0.13600
C257        C  0.48843369  0.04173455  0.15524434     0.24400
C258        C  0.49083518  0.06394212  0.12913821    -0.23700
C259        C  0.46067723  0.07164975  0.10428020     0.19300
C260        C  0.42970692  0.05317608  0.10385293     0.24400
C261        C  0.42868258  0.02687483  0.12828634    -0.23600
C262        C  0.45777690  0.02366004  0.15490246     0.19300
F263        F  0.45729896  0.00016627  0.17972872    -0.13600
F264        F  0.51673216  0.03428499  0.17988280    -0.15900
F265        F  0.40192057  0.05778531  0.07817714    -0.15900
F266        F  0.46200063  0.09311391  0.07869427    -0.13600
C267        C  0.23862311  0.95982064  0.15909971     0.24400
C268        C  0.24079754  0.93708522  0.13325832    -0.23700
C269        C  0.21095176  0.93056134  0.10787019     0.19300
C270        C  0.18049839  0.95029955  0.10677211     0.24400
C271        C  0.17953315  0.97657460  0.13109771    -0.23600
C272        C  0.20837156  0.97941532  0.15805134     0.19300
F273        F  0.20810320  0.00365239  0.18247714    -0.13600
F274        F  0.26680165  0.96607430  0.18412673    -0.15900
F275        F  0.15333283  0.94723283  0.08035649    -0.15900
F276        F  0.21236108  0.90932769  0.08223746    -0.13600
C277        C  0.15286790  0.27857022  0.39220343     0.24400
C278        C  0.11881953  0.29173701  0.37961794    -0.23700
C279        C  0.09369796  0.26414312  0.36453270     0.19300
C280        C  0.10239923  0.22460833  0.36151720     0.24400
C281        C  0.13643398  0.21134788  0.37401364    -0.23600
C282        C  0.16155050  0.23884021  0.38943688     0.19300
F283        F  0.19431875  0.22712052  0.40283117    -0.13600
F284        F  0.17788769  0.30414755  0.40747387    -0.15900
F285        F  0.07725155  0.19923814  0.34614339    -0.15900
F286        F  0.06076496  0.27558047  0.35163790    -0.13600
C287        C  0.14983881  0.22148289  0.13907793     0.24400
C288        C  0.11597362  0.20932031  0.12386182    -0.23700
C289        C  0.09217742  0.23760754  0.10746536     0.19300
C290        C  0.10192673  0.27722137  0.10668156     0.24400
C291        C  0.13557393  0.28945532  0.12252711    -0.23600
C292        C  0.15955560  0.26102611  0.13826685     0.19300
F293        F  0.19207035  0.27164665  0.15398338    -0.13600
F294        F  0.17378480  0.19500676  0.15502352    -0.15900
F295        F  0.07832105  0.30374236  0.09025465    -0.15900
F296        F  0.05986359  0.22678969  0.09126249    -0.13600
C297        C  0.11770285  0.47159642  0.01695863     0.24400
C298        C  0.12575835  0.43641166  0.03462224    -0.23700
C299        C  0.13265197  0.40197451  0.01976612     0.19300
C300        C  0.12768311  0.40521574  0.48826870     0.24400
C301        C  0.12590250  0.44097004  0.47141478    -0.23600
C302        C  0.12435683  0.47701863  0.48706014     0.19300
F303        F  0.12210166  0.51225291  0.47166831    -0.13600
F304        F  0.11022343  0.50513557  0.03049927    -0.15900
F305        F  0.12792469  0.36983497  0.47372624    -0.15900
F306        F  0.14089323  0.36763492  0.03636149    -0.13600
C307        C  0.09344799  0.40595468  0.25708415     0.24400
C308        C  0.12195756  0.39909337  0.28387203    -0.23700
C309        C  0.15359376  0.39140301  0.27949260     0.19300
C310        C  0.15682975  0.38945040  0.24895184     0.24400
C311        C  0.12818056  0.39585823  0.22193781    -0.23600
C312        C  0.09672987  0.40478637  0.22652210     0.19300
F313        F  0.06878811  0.41198010  0.20140257    -0.13600
F314        F  0.06250910  0.41437861  0.26053125    -0.15900
F315        F  0.18810841  0.38190064  0.24596489    -0.15900
F316        F  0.18138055  0.38449362  0.30480976    -0.13600
C317        C  0.34933549  0.72352102  0.11638638     0.24400
C318        C  0.38335392  0.70986996  0.12806374    -0.23700
C319        C  0.40916290  0.73762610  0.14135352     0.19300
C320        C  0.40133293  0.77803881  0.14190115     0.24400
C321        C  0.36743194  0.79167957  0.12935217    -0.23600
C322        C  0.34151843  0.76379617  0.11716511     0.19300
F323        F  0.30860206  0.77555928  0.10482652    -0.13600
F324        F  0.32332374  0.69791651  0.10384086    -0.15900
F325        F  0.42706155  0.80383917  0.15492107    -0.15900
F326        F  0.44188050  0.72565860  0.15466858    -0.13600
C327        C  0.00415644  0.53730312  0.24531894     0.24400
C328        C  0.47651778  0.51726761  0.22698980    -0.23700
C329        C  0.47083367  0.47802333  0.23458408     0.19300
C330        C  0.49138233  0.46098166  0.26243430     0.24400
C331        C  0.01704454  0.48293795  0.28282501    -0.23600
C332        C  0.02407609  0.52104878  0.27372499     0.19300
F333        F  0.05091809  0.54227522  0.29182391    -0.13600
F334        F  0.01254104  0.57380825  0.23700886    -0.15900
F335        F  0.48474495  0.42315674  0.26934492    -0.15900
F336        F  0.44506600  0.45630529  0.21534881    -0.13600
C337        C  0.26452072  0.45408240  0.09551908     0.24400
C338        C  0.26298247  0.43238868  0.12212425    -0.23700
C339        C  0.29329821  0.42628536  0.14711210     0.19300
C340        C  0.32328432  0.44660568  0.14742191     0.24400
C341        C  0.32308861  0.47302328  0.12274103    -0.23600
C342        C  0.29421718  0.47425936  0.09582865     0.19300
F343        F  0.29385973  0.49756121  0.07067429    -0.13600
F344        F  0.23609306  0.45908281  0.07049885    -0.15900
F345        F  0.35112454  0.44375766  0.17327338    -0.15900
F346        F  0.29287989  0.40474533  0.17294401    -0.13600
C347        C  0.04511977  0.52209484  0.09649623     0.24400
C348        C  0.07404565  0.52307129  0.12344988    -0.23700
C349        C  0.07316675  0.54710289  0.14914908     0.19300
C350        C  0.04269171  0.56624354  0.14918804     0.24400
C351        C  0.01276880  0.56148591  0.12353845    -0.23600
C352        C  0.01485499  0.54093701  0.09661015     0.19300
F353        F  0.48466418  0.54190595  0.07204469    -0.13600
F354        F  0.04539026  0.50035986  0.07074094    -0.15900
F355        F  0.04139784  0.58533902  0.17579735    -0.15900
F356        F  0.10050230  0.54857548  0.17552795    -0.13600
C357        C  0.34649708  0.73598839  0.35394679     0.24400
C358        C  0.36538462  0.71100762  0.37831702    -0.23700
C359        C  0.39606693  0.72522871  0.39936214     0.19300
C360        C  0.40742435  0.76377051  0.39641250     0.24400
C361        C  0.38832725  0.78896878  0.37233630    -0.23600
C362        C  0.35781570  0.77460362  0.35103473     0.19300
F363        F  0.33893154  0.79813094  0.32729855    -0.13600
F364        F  0.31801592  0.72240300  0.33201272    -0.15900
F365        F  0.43619888  0.77707094  0.41808945    -0.15900
F366        F  0.41512422  0.70157824  0.42290627    -0.13600
C367        C  0.27291859  0.47503075  0.27759105     0.24400
C368        C  0.27248902  0.51631789  0.28167514    -0.23700
C369        C  0.25053942  0.53970381  0.25769531     0.19300
C370        C  0.22990035  0.52237609  0.23006318     0.24400
C371        C  0.23066974  0.48115775  0.22567282    -0.23600
C372        C  0.25230882  0.45765789  0.24987722     0.19300
F373        F  0.25425501  0.41774398  0.24668920    -0.13600
F374        F  0.29360931  0.45141076  0.30014788    -0.15900
F375        F  0.20897413  0.54610708  0.20778461    -0.15900
F376        F  0.24832287  0.57956320  0.26106370    -0.13600
C377        C  0.37654867  0.64147327  0.26928957     0.24400
C378        C  0.37685584  0.60578906  0.28575820    -0.23700
C379        C  0.37426955  0.56960890  0.26953362     0.19300
C380        C  0.37180940  0.56906983  0.23727498     0.24400
C381        C  0.37234379  0.60473584  0.22100008    -0.23600
C382        C  0.37496188  0.64090963  0.23729673     0.19300
F383        F  0.37613980  0.67568777  0.22214227    -0.13600
F384        F  0.37777672  0.67683553  0.28425047    -0.15900
F385        F  0.37034103  0.53372319  0.22226880    -0.15900
F386        F  0.37277610  0.53493447  0.28469800    -0.13600
C387        C  0.37161938  0.52866413  0.48731718     0.24400
C388        C  0.37646570  0.56381390  0.47188118    -0.23700
C389        C  0.38186235  0.59961257  0.48911021     0.19300
C390        C  0.38268992  0.59695231  0.02193395     0.24400
C391        C  0.37644220  0.56188211  0.03645291    -0.23600
C392        C  0.37154683  0.52631871  0.01920341     0.19300
F393        F  0.36533590  0.49193106  0.03251664    -0.13600
F394        F  0.36605277  0.49340052  0.47180919    -0.15900
F395        F  0.38855339  0.63150893  0.03838340    -0.15900
F396        F  0.38594838  0.63428525  0.47507237    -0.13600
C397        C  0.45734589  0.47702222  0.41088712     0.24400
C398        C  0.42886495  0.47643678  0.38350567    -0.23700
C399        C  0.43004989  0.45218151  0.35803265     0.19300
C400        C  0.46040654  0.43225868  0.35874021     0.24400
C401        C  0.48997255  0.43646137  0.38490108    -0.23600
C402        C  0.48752406  0.45738264  0.41151735     0.19300
F403        F  0.01665071  0.46058695  0.43955827    -0.13600
F404        F  0.45675066  0.49904520  0.43639700    -0.15900
F405        F  0.46208231  0.41300197  0.33231068    -0.15900
F406        F  0.40324333  0.45119379  0.33118586    -0.13600
C407        C  0.23561458  0.54645974  0.40894057     0.24400
C408        C  0.23855744  0.56525785  0.38152410    -0.23700
C409        C  0.20904432  0.56899537  0.35521548     0.19300
C410        C  0.17842354  0.55010264  0.35511582     0.24400
C411        C  0.17684939  0.52762619  0.38142931    -0.23600
C412        C  0.20507873  0.52816430  0.40896548     0.19300
F413        F  0.20382909  0.50839944  0.43536158    -0.13600
F414        F  0.26318195  0.54310426  0.43500621    -0.15900
F415        F  0.15168230  0.55030984  0.32820471    -0.15900
F416        F  0.21087914  0.58690077  0.32827357    -0.13600
O417        O  0.29968398  0.53944525  0.88734713    -0.81000
C418        C  0.37802344  0.60618968  0.81959036     0.98400
O419        O  0.35117800  0.62265755  0.82230467    -0.70100
O420        O  0.30239917  0.57123501  0.81372267    -0.73700
Al421      Al  0.32099086  0.60763999  0.84620724     1.49000
C422        C  0.30074545  0.53405371  0.81202837     0.93600
O423        O  0.37734867  0.49771798  0.86957168    -0.79900
O424        O  0.38977366  0.58889074  0.92708339    -0.73500
Al425      Al  0.33976971  0.52444568  0.87813702     1.90100
O426        O  0.41613604  0.53898162  0.89418957    -0.72500
O427        O  0.38865776  0.64356419  0.88248794    -0.72400
O428        O  0.39839043  0.58748281  0.84282776    -0.78000
O429        O  0.33462512  0.65114465  0.87524946    -0.76200
O430        O  0.35104177  0.57324962  0.86979263    -1.12400
O431        O  0.28517336  0.59709653  0.86444670    -0.71600
C432        C  0.27872994  0.56743951  0.87904734     0.99200
C433        C  0.40799305  0.50497239  0.88374829     0.95600
Al434      Al  0.39430267  0.58836124  0.88523648     1.55600
O435        O  0.31486706  0.51255467  0.83565384    -0.76200
C436        C  0.36408727  0.66572679  0.88166714     0.99700
C437        C  0.37754341  0.56029715  0.93924523     0.94600
O438        O  0.36282330  0.53090881  0.92254503    -0.81500
O439        O  0.46218669  0.54262213  0.62107625    -0.81000
C440        C  0.38637517  0.60564147  0.69152626     0.98400
O441        O  0.41236735  0.62367613  0.68829790    -0.70100
O442        O  0.46150611  0.57384862  0.69440982    -0.73700
Al443      Al  0.44163889  0.61038333  0.66279675     1.49000
C444        C  0.46292820  0.53677087  0.69646079     0.93600
O445        O  0.38546083  0.50001355  0.64047510    -0.79900
O446        O  0.37113795  0.59256274  0.58357731    -0.73500
Al447      Al  0.42248144  0.52725643  0.63092688     1.90100
O448        O  0.34603571  0.54065930  0.61597771    -0.72500
O449        O  0.37297033  0.64558811  0.62950303    -0.72400
O450        O  0.36551523  0.58738547  0.66844871    -0.78000
O451        O  0.42631430  0.65472856  0.63435455    -0.76200
O452        O  0.41141869  0.57581261  0.63974872    -1.12400
O453        O  0.47687214  0.60068808  0.64313442    -0.71600
C454        C  0.48320215  0.57065532  0.62876284     0.99200
C455        C  0.35457492  0.50690248  0.62692793     0.95600
Al456      Al  0.36795075  0.59029543  0.62570425     1.55600
O457        O  0.44816079  0.51508172  0.67318028    -0.76200
C458        C  0.39662365  0.66858410  0.62905786     0.99700
C459        C  0.38255323  0.56408027  0.57061403     0.94600
O460        O  0.39819485  0.53448227  0.58657974    -0.81500
O461        O  0.14686583  0.47215292  0.58631067    -0.81000
C462        C  0.13592981  0.39886415  0.69063637     0.98400
O463        O  0.11518961  0.41760960  0.66784277    -0.70100
O464        O  0.09631653  0.46621334  0.61692781    -0.73700
Al465      Al  0.11735431  0.41572188  0.62527726     1.49000
C466        C  0.10552403  0.49915019  0.62935193     0.93600
O467        O  0.20047218  0.48916745  0.67243680    -0.79900
O468        O  0.22570131  0.40363385  0.64215423    -0.73500
Al469      Al  0.17267623  0.47783990  0.63055603     1.90100
O470        O  0.21189564  0.43030102  0.69408470    -0.72500
O471        O  0.17521696  0.35050428  0.63352127    -0.72400
O472        O  0.16201182  0.38107523  0.68749093    -0.78000
O473        O  0.12175582  0.36012724  0.62812164    -0.76200
O474        O  0.16110119  0.42941386  0.63931363    -1.12400
O475        O  0.12002830  0.41415528  0.58309940    -0.71600
C476        C  0.13137905  0.44263459  0.57017727     0.99200
C477        C  0.21497045  0.46734179  0.69574947     0.95600
Al478      Al  0.19104578  0.39429661  0.66207660     1.55600
O479        O  0.13672273  0.50532215  0.64217091    -0.76200
C480        C  0.14543406  0.33696160  0.62801654     0.99700
C481        C  0.23194788  0.43300996  0.62708762     0.94600
O482        O  0.21114026  0.46127929  0.61891409    -0.81500
O483        O  0.10915552  0.46927135  0.91942279    -0.81000
C484        C  0.12575063  0.39552023  0.81719609     0.98400
O485        O  0.14581314  0.41409348  0.84066197    -0.70100
O486        O  0.16291400  0.46214366  0.89230712    -0.73700
Al487      Al  0.14120788  0.41243715  0.88263638     1.49000
C488        C  0.15497345  0.49538580  0.88001025     0.93600
O489        O  0.06152948  0.48735759  0.83204041    -0.79900
O490        O  0.03238321  0.40176345  0.86149148    -0.73500
Al491      Al  0.08639246  0.47562536  0.87457725     1.90100
O492        O  0.04898241  0.42852196  0.81045476    -0.72500
O493        O  0.08258527  0.34801188  0.87152795    -0.72400
O494        O  0.09881456  0.37868531  0.81927476    -0.78000
O495        O  0.13639137  0.35728985  0.87925014    -0.76200
O496        O  0.09789120  0.42690690  0.86664540    -1.12400
O497        O  0.13580467  0.41106731  0.92405741    -0.71600
C498        C  0.12340482  0.43951378  0.93616943     0.99200
C499        C  0.04717174  0.46564855  0.80868664     0.95600
Al500      Al  0.06827993  0.39218199  0.84294919     1.55600
O501        O  0.12423136  0.50235157  0.86569914    -0.76200
C502        C  0.11231743  0.33410705  0.87757355     0.99700
C503        C  0.02576071  0.43154487  0.87587973     0.94600
O504        O  0.04627777  0.46009105  0.88341644    -0.81500
O505        O  0.35929989  0.97088545  0.66507809    -0.81000
C506        C  0.37122308  0.89925157  0.56062311     0.98400
O507        O  0.39194660  0.91806426  0.58345031    -0.70100
O508        O  0.41116618  0.96539862  0.63557977    -0.73700
Al509      Al  0.38973402  0.91535050  0.62614467     1.49000
C510        C  0.40226563  0.99846139  0.62332122     0.93600
O511        O  0.30822640  0.98931398  0.57860618    -0.79900
O512        O  0.28200945  0.90243524  0.61037081    -0.73500
Al513      Al  0.33464491  0.97755420  0.62066501     1.90100
O514        O  0.29451986  0.93023452  0.55799523    -0.72500
O515        O  0.33262366  0.84943552  0.61738884    -0.72400
O516        O  0.34487205  0.88185780  0.56362438    -0.78000
O517        O  0.38574673  0.85996888  0.62243066    -0.76200
O518        O  0.34607780  0.92906043  0.61209706    -1.12400
O519        O  0.38651458  0.91301643  0.66824870    -0.71600
C520        C  0.37457555  0.94113358  0.68114759     0.99200
C521        C  0.29279049  0.96732923  0.55581799     0.95600
Al522      Al  0.31612895  0.89393230  0.58953326     1.55600
O523        O  0.37121431  0.00488441  0.61014984    -0.76200
C524        C  0.36240775  0.83619558  0.62210506     0.99700
C525        C  0.27523190  0.93265753  0.62422516     0.94600
O526        O  0.29537822  0.96161713  0.63098943    -0.81500
O527        O  0.39678045  0.96633288  0.83048525    -0.81000
C528        C  0.38148406  0.89882469  0.93491439     0.98400
O529        O  0.36045509  0.91398533  0.91020421    -0.70100
O530        O  0.34346164  0.96038972  0.85755009    -0.73700
Al531      Al  0.36537980  0.91068296  0.86839006     1.49000
C532        C  0.35131983  0.99385580  0.86949670     0.93600
O533        O  0.44489030  0.98787731  0.91684698    -0.79900
O534        O  0.47341908  0.89875098  0.88798563    -0.73500
Al535      Al  0.41988516  0.97404674  0.87486858     1.90100
O536        O  0.45988250  0.92979236  0.93836443    -0.72500
O537        O  0.42430902  0.84567678  0.88342937    -0.72400
O538        O  0.40931673  0.88269625  0.93421338    -0.78000
O539        O  0.37038647  0.85569394  0.87357698    -0.76200
O540        O  0.40874329  0.92561791  0.88399361    -1.12400
O541        O  0.37065469  0.90779148  0.82674285    -0.71600
C542        C  0.38203743  0.93668858  0.81410924     0.99200
C543        C  0.46123051  0.96678028  0.93986856     0.95600
Al544      Al  0.43891116  0.89204833  0.90862184     1.55600
O545        O  0.38208638  0.00105719  0.88341864    -0.76200
C546        C  0.39468238  0.83213681  0.87765474     0.99700
C547        C  0.48024153  0.92853652  0.87364145     0.94600
O548        O  0.46004662  0.95756750  0.86639092    -0.81500
O549        O  0.04554589  0.04377891  0.62990554    -0.81000
C550        C  0.12361975  0.10688115  0.56207353     0.98400
O551        O  0.09685776  0.12421929  0.56419284    -0.70100
O552        O  0.04705050  0.07451662  0.55671898    -0.73700
Al553      Al  0.06669006  0.11131969  0.58857152     1.49000
C554        C  0.04570685  0.03739700  0.55492975     0.93600
O555        O  0.12265808  0.00126911  0.61140156    -0.79900
O556        O  0.13509915  0.09286163  0.66948625    -0.73500
Al557      Al  0.08531117  0.02809588  0.62063703     1.90100
O558        O  0.16171241  0.04113412  0.63767077    -0.72500
O559        O  0.13507973  0.14647071  0.62403255    -0.72400
O560        O  0.14394903  0.08872265  0.58562997    -0.78000
O561        O  0.08125384  0.15616852  0.61636898    -0.76200
O562        O  0.09659216  0.07677589  0.61234789    -1.12400
O563        O  0.03116484  0.10206040  0.60788805    -0.71600
C564        C  0.02489751  0.07224288  0.62256634     0.99200
C565        C  0.15341691  0.00781555  0.62563976     0.95600
Al566      Al  0.13995765  0.09110535  0.62779939     1.55600
O567        O  0.06036833  0.01603727  0.57842295    -0.76200
C568        C  0.11106136  0.16982460  0.62244778     0.99700
C569        C  0.12311035  0.06411629  0.68173261     0.94600
O570        O  0.10858145  0.03452542  0.66513197    -0.81500
O571        O  0.20769383  0.04002517  0.86530260    -0.81000
C572        C  0.13118631  0.10276516  0.93473465     0.98400
O573        O  0.15777466  0.12030059  0.93244431    -0.70100
O574        O  0.20654954  0.07024989  0.93864524    -0.73700
Al575      Al  0.18742808  0.10739885  0.90745811     1.49000
C576        C  0.20790656  0.03323444  0.94061005     0.93600
O577        O  0.13036748  0.99876143  0.88418184    -0.79900
O578        O  0.11786765  0.09150852  0.82719676    -0.73500
Al579      Al  0.16777518  0.02496779  0.87475939     1.90100
O580        O  0.09139623  0.03914794  0.85832275    -0.72500
O581        O  0.11939440  0.14360823  0.87373430    -0.72400
O582        O  0.11045664  0.08509259  0.91124097    -0.78000
O583        O  0.17301756  0.15256047  0.87995471    -0.76200
O584        O  0.15709175  0.07356853  0.88364566    -1.12400
O585        O  0.22277719  0.09773517  0.88799720    -0.71600
C586        C  0.22885648  0.06788334  0.87326862     0.99200
C587        C  0.09958972  0.00582667  0.87038209     0.95600
Al588      Al  0.11376879  0.08860269  0.86894675     1.55600
O589        O  0.19316996  0.01180801  0.91712104    -0.76200
C590        C  0.14349708  0.16670412  0.87514215     0.99700
C591        C  0.12906084  0.06287713  0.81422175     0.94600
O592        O  0.14390979  0.03283516  0.83022366    -0.81500
C593        C  0.12653355  0.10024207  0.73243859     0.24400
C594        C  0.12521363  0.06439348  0.71581096    -0.23700
C595        C  0.12336563  0.02844169  0.73149171     0.19300
C596        C  0.12354800  0.02825238  0.76307378     0.24400
C597        C  0.12549876  0.06395003  0.77990659    -0.23600
C598        C  0.12651018  0.10002554  0.76415529     0.19300
F599        F  0.12838484  0.13507430  0.77964652    -0.13600
F600        F  0.12708610  0.13556231  0.71785031    -0.15900
F601        F  0.12143678  0.99290216  0.77711008    -0.15900
F602        F  0.12174975  0.99310657  0.71641278    -0.13600
C603        C  0.12187740  0.14117653  0.51169207     0.24400
C604        C  0.12903399  0.10679159  0.53061366    -0.23700
C605        C  0.13527912  0.07094840  0.51712028     0.19300
C606        C  0.11675510  0.13685037  0.97872404     0.24400
C607        C  0.12620969  0.10214310  0.96617397    -0.23600
C608        C  0.13715737  0.06902256  0.98591742     0.19300
F609        F  0.14788895  0.03576908  0.97447602    -0.13600
F610        F  0.11531433  0.17609605  0.52397886    -0.15900
F611        F  0.10753704  0.16967675  0.96034070    -0.15900
F612        F  0.14109208  0.03705135  0.53451401    -0.13600
C613        C  0.99829812  0.01783357  0.96785360     0.24400
C614        C  0.48302627  0.98479753  0.96910327    -0.23700
C615        C  0.50954328  0.96224196  0.98954485     0.19300
C616        C  0.51000944  0.97787153  0.52990482     0.24400
C617        C  0.02570336  0.01890685  0.52504095    -0.24400
C618        C  0.00017028  0.04085192  0.50299857     0.19300
F619        F  0.99397444  0.07932848  0.50842389    -0.13600
F620        F  0.99611146  0.03596390  0.93989010    -0.15900
F621        F  0.51648744  0.95748464  0.55756446    -0.15900
F622        F  0.51638606  0.92476586  0.98201171    -0.13600
C623        C  0.29275471  0.06613990  0.89360620     0.24400
C624        C  0.26260808  0.06180358  0.86813202    -0.23700
C625        C  0.26428062  0.04120796  0.84103610     0.19300
C626        C  0.29434872  0.02214483  0.84055352     0.24400
C627        C  0.32350154  0.02296424  0.86724578    -0.23600
C628        C  0.32301306  0.04685100  0.89315309     0.19300
F629        F  0.35058727  0.04809461  0.91933529    -0.13600
F630        F  0.29193798  0.08498664  0.92046920    -0.15900
F631        F  0.29426499  0.00060629  0.81460228    -0.15900
F632        F  0.23585949  0.03675522  0.81594046    -0.13600
C633        C  0.01532039  0.95283851  0.84047992     0.24400
C634        C  0.01179910  0.93700386  0.86871567    -0.23700
C635        C  0.03978951  0.93863385  0.89644497     0.19300
C636        C  0.06978084  0.95840742  0.89647565     0.24400
C637        C  0.07233398  0.97663059  0.86876815    -0.23600
C638        C  0.04541589  0.97231474  0.84047376     0.19300
F639        F  0.04751044  0.98911794  0.81320140    -0.13600
F640        F  0.98870614  0.95194901  0.81345689    -0.15900
F641        F  0.09462086  0.96376955  0.92435040    -0.15900
F642        F  0.03651758  0.92573070  0.92448077    -0.13600
C643        C  0.26797352  0.96514844  0.49722739     0.24400
C644        C  0.27150393  0.98468753  0.52611120    -0.23700
C645        C  0.25295048  0.01951004  0.52649408     0.19300
C646        C  0.25108374  0.03933930  0.99372297     0.24400
C647        C  0.22789750  0.01552903  0.97096357    -0.23600
C648        C  0.22460307  0.97532829  0.97765038     0.19300
F649        F  0.20194681  0.95167960  0.95673532    -0.13600
F650        F  0.28582986  0.93155078  0.49617681    -0.15900
F651        F  0.25521922  0.07840810  0.98844449    -0.15900
F652        F  0.25453754  0.03785377  0.55421045    -0.13600
C653        C  0.37876776  0.86123052  0.51528069     0.24400
C654        C  0.37595908  0.89797943  0.52910635    -0.23700
C655        C  0.37091291  0.93248565  0.51048440     0.19300
C656        C  0.40239311  0.91385934  0.99234153     0.24400
C657        C  0.37554766  0.90117568  0.96614878    -0.23600
C658        C  0.34480966  0.88917817  0.97083369     0.19300
F659        F  0.31839952  0.87710226  0.94593666    -0.13600
F660        F  0.38296947  0.82748015  0.53281316    -0.15900
F661        F  0.43190698  0.92736619  0.98842429    -0.15900
F662        F  0.36692319  0.96810965  0.52319427    -0.13600
C663        C  0.37909144  0.90293726  0.73123462     0.24400
C664        C  0.37756128  0.93949753  0.71540281    -0.23700
C665        C  0.37644313  0.97471172  0.73211265     0.19300
C666        C  0.37707753  0.97346482  0.76381930     0.24400
C667        C  0.37865883  0.93699115  0.77975430    -0.23600
C668        C  0.37951268  0.90168590  0.76307908     0.19300
F669        F  0.38169032  0.86600911  0.77778043    -0.13600
F670        F  0.37937997  0.86829107  0.71571847    -0.15900
F671        F  0.37580041  0.00826170  0.77886265    -0.15900
F672        F  0.37511940  0.01065577  0.71790954    -0.13600
C673        C  0.48585614  0.05251249  0.65345086     0.24400
C674        C  0.49085155  0.06581075  0.62509787    -0.23700
C675        C  0.46367245  0.06295300  0.59678821     0.19300
C676        C  0.43307874  0.04415783  0.59648730     0.24400
C677        C  0.42919646  0.02809974  0.62450118    -0.23600
C678        C  0.45529514  0.03390489  0.65316523     0.19300
F679        F  0.45210977  0.01888920  0.68063245    -0.13600
F680        F  0.51161364  0.05476868  0.68103976    -0.15900
F681        F  0.40905637  0.03745007  0.56832646    -0.15900
F682        F  0.46836636  0.07358813  0.56876471    -0.13600
C683        C  0.23872959  0.95713080  0.65615103     0.24400
C684        C  0.24127965  0.93798736  0.62878665    -0.23700
C685        C  0.21200056  0.93541878  0.60225254     0.19300
C686        C  0.18184597  0.95528612  0.60199326     0.24400
C687        C  0.18062914  0.97794745  0.62826578    -0.23600
C688        C  0.20868067  0.97679541  0.65593796     0.19300
F689        F  0.20778826  0.99707081  0.68218857    -0.13600
F690        F  0.26637566  0.95969880  0.68220672    -0.15900
F691        F  0.15535547  0.95605471  0.57489011    -0.15900
F692        F  0.21392284  0.91817243  0.57512036    -0.13600
C693        C  0.15401258  0.27744307  0.89008883     0.24400
C694        C  0.11980879  0.29090304  0.87947009    -0.23700
C695        C  0.09396951  0.26323311  0.86652419     0.19300
C696        C  0.10202340  0.22339967  0.86371292     0.24400
C697        C  0.13621374  0.20994460  0.87408161    -0.23600
C698        C  0.16207352  0.23753210  0.88733244     0.19300
F699        F  0.19514019  0.22585389  0.89847698    -0.13600
F700        F  0.17995504  0.30294258  0.90320796    -0.15900
F701        F  0.07602916  0.19796631  0.85063945    -0.15900
F702        F  0.06085933  0.27477722  0.85561244    -0.13600
C703        C  0.15261687  0.22575944  0.64049687     0.24400
C704        C  0.11892041  0.21297028  0.62529862    -0.23700
C705        C  0.09473672  0.24121378  0.60929912     0.19300
C706        C  0.10394474  0.28118209  0.60871466     0.24400
C707        C  0.13755031  0.29394056  0.62422284    -0.23600
C708        C  0.16177958  0.26567133  0.63993390     0.19300
F709        F  0.19407588  0.27681543  0.65592183    -0.13600
F710        F  0.17690071  0.19957958  0.65627758    -0.15900
F711        F  0.07988124  0.30747415  0.59270790    -0.15900
F712        F  0.06246445  0.23004319  0.59325939    -0.13600
C713        C  0.12532996  0.47734705  0.51885985     0.24400
C714        C  0.12743771  0.44170371  0.53581436    -0.23700
C715        C  0.12824812  0.40555874  0.52012843     0.19300
C716        C  0.13240723  0.40295337  0.98797853     0.24400
C717        C  0.12480854  0.43842567  0.97025407    -0.23600
C718        C  0.11689988  0.47256613  0.98514621     0.19300
F719        F  0.10859201  0.50731488  0.96913418    -0.13600
F720        F  0.12373999  0.51275292  0.53296164    -0.15900
F721        F  0.13932564  0.36904764  0.97457869    -0.15900
F722        F  0.13046887  0.37056932  0.53582376    -0.13600
C723        C  0.14534889  0.42786656  0.77480440     0.24400
C724        C  0.13167626  0.39464618  0.78587077    -0.23700
C725        C  0.11850263  0.36308883  0.76477177     0.19300
C726        C  0.11890595  0.36494162  0.73332878     0.24400
C727        C  0.13150222  0.39866340  0.72222634    -0.23600
C728        C  0.14501838  0.42993831  0.74312483     0.19300
F729        F  0.15823176  0.46232642  0.73283886    -0.13600
F730        F  0.15763460  0.45907942  0.79421606    -0.15900
F731        F  0.10702112  0.33382497  0.71367192    -0.15900
F732        F  0.10508246  0.33046277  0.77455190    -0.13600
C733        C  0.35420131  0.72426978  0.61326464     0.24400
C734        C  0.38856040  0.71164832  0.62479254    -0.23700
C735        C  0.41399735  0.74043721  0.63568975     0.19300
C736        C  0.40528337  0.78059417  0.63579617     0.24400
C737        C  0.37084142  0.79313042  0.62491358    -0.23600
C738        C  0.34547976  0.76438795  0.61343636     0.19300
F739        F  0.31223812  0.77506920  0.60155737    -0.13600
F740        F  0.32869056  0.69770870  0.60165920    -0.15900
F741        F  0.43085828  0.80720528  0.64690867    -0.15900
F742        F  0.44727146  0.72975026  0.64721640    -0.13600
C743        C  0.97969027  0.52794149  0.75311460     0.24400
C744        C  0.48269205  0.51908828  0.72675960    -0.23700
C745        C  0.47711549  0.47968943  0.73407393     0.19300
C746        C  0.49639362  0.46305343  0.76261315     0.24400
C747        C  0.02577669  0.48345725  0.77926063    -0.23600
C748        C  0.00277396  0.51353290  0.78074910     0.19300
F749        F  0.00179732  0.52799786  0.80909924    -0.13600
F750        F  0.95730229  0.55650207  0.75550792    -0.15900
F751        F  0.48968172  0.42508357  0.76907619    -0.15900
F752        F  0.45261385  0.45732640  0.71389299    -0.13600
C753        C  0.26922130  0.45701058  0.59556173     0.24400
C754        C  0.26610556  0.43829667  0.62292461    -0.23700
C755        C  0.29513669  0.43549271  0.64971644     0.19300
C756        C  0.32557684  0.45478830  0.65021303     0.24400
C757        C  0.32739356  0.47700324  0.62392361    -0.23600
C758        C  0.29961541  0.47604450  0.59600730     0.19300
F759        F  0.30109946  0.49605668  0.56978841    -0.13600
F760        F  0.24187459  0.45971419  0.56923870    -0.15900
F761        F  0.35171984  0.45567576  0.67757575    -0.15900
F762        F  0.29271356  0.41868071  0.67685918    -0.13600
C763        C  0.05184761  0.53380276  0.60010778     0.24400
C764        C  0.07866174  0.52900401  0.62839182    -0.23700
C765        C  0.07557653  0.54637801  0.65626716     0.19300
C766        C  0.04487114  0.56487574  0.65637796     0.24400
C767        C  0.01678840  0.56612782  0.62859084    -0.23600
C768        C  0.02126140  0.55201719  0.60020383     0.19300
F769        F  0.49101290  0.54047310  0.57133063    -0.13600
F770        F  0.05443105  0.51821844  0.57262372    -0.15900
F771        F  0.04130829  0.57720105  0.68442377    -0.15900
F772        F  0.10072676  0.54160422  0.68403114    -0.13600
C773        C  0.34570837  0.73547763  0.86711788     0.24400
C774        C  0.37053385  0.70889311  0.88452260    -0.23700
C775        C  0.40365752  0.72318921  0.89981526     0.19300
C776        C  0.41205097  0.76290481  0.89674019     0.24400
C777        C  0.38749092  0.78915333  0.87821372    -0.23600
C778        C  0.35413892  0.77501717  0.86381057     0.19300
F779        F  0.32952653  0.79940625  0.84595068    -0.13600
F780        F  0.31366333  0.72282756  0.85187961    -0.15900
F781        F  0.44387105  0.77580644  0.91258315    -0.15900
F782        F  0.42812808  0.69857254  0.91766472    -0.13600
C783        C  0.26411185  0.47947619  0.78227271     0.24400
C784        C  0.28051554  0.51595572  0.78206712    -0.23700
C785        C  0.27522222  0.53643182  0.75324970     0.19300
C786        C  0.25344649  0.52102553  0.72521494     0.24400
C787        C  0.23674279  0.48471858  0.72547229    -0.23600
C788        C  0.24261898  0.46390057  0.75423847     0.19300
F789        F  0.22704917  0.42868007  0.75547649    -0.13600
F790        F  0.26780342  0.45951628  0.80977414    -0.15900
F791        F  0.24952488  0.54109524  0.69773282    -0.15900
F792        F  0.29144239  0.57124193  0.75209589    -0.13600
C793        C  0.36993219  0.63957480  0.76702313     0.24400
C794        C  0.38342112  0.60774723  0.78783211    -0.23700
C795        C  0.39709248  0.57498875  0.77613309     0.19300
C796        C  0.39625147  0.57356024  0.74420216     0.24400
C797        C  0.38226611  0.60503165  0.72350646    -0.23600
C798        C  0.36976047  0.63835628  0.73529878     0.19300
F799        F  0.35747017  0.66978844  0.71605993    -0.13600
F800        F  0.35697473  0.67206830  0.77743739    -0.15900
F801        F  0.40942734  0.54150487  0.73349227    -0.15900
F802        F  0.41009185  0.54367241  0.79524506    -0.13600
C803        C  0.37269486  0.52575014  0.98800954     0.24400
C804        C  0.37907943  0.56079748  0.97324679    -0.23700
C805        C  0.38419409  0.59643294  0.99067565     0.19300
C806        C  0.38253418  0.60007574  0.52098244     0.24400
C807        C  0.37827768  0.56479282  0.53629480    -0.23600
C808        C  0.37266799  0.52917289  0.51911252     0.19300
F809        F  0.36777945  0.49470886  0.53306485    -0.13600
F810        F  0.36772358  0.49053397  0.97242393    -0.15900
F811        F  0.38844365  0.63485024  0.53713983    -0.15900
F812        F  0.39014052  0.63092736  0.97741212    -0.13600
C813        C  0.46471586  0.47855320  0.91468673     0.24400
C814        C  0.43538759  0.47510922  0.88829494    -0.23700
C815        C  0.43518251  0.44720093  0.86471291     0.19300
C816        C  0.46524144  0.42698824  0.86545034     0.24400
C817        C  0.49570342  0.43468765  0.88971812    -0.23600
C818        C  0.49458395  0.45847993  0.91538536     0.19300
F819        F  0.01906490  0.46230787  0.93327312    -0.13600
F820        F  0.46534283  0.50394608  0.93867921    -0.15900
F821        F  0.46565774  0.40440284  0.84018711    -0.15900
F822        F  0.40724955  0.44297458  0.83914831    -0.13600
C823        C  0.24137048  0.54334675  0.91042429     0.24400
C824        C  0.24453313  0.56180387  0.88298468    -0.23700
C825        C  0.21554159  0.56465518  0.85621144     0.19300
C826        C  0.18488345  0.54595889  0.85590171     0.24400
C827        C  0.18275421  0.52444571  0.88245892    -0.23600
C828        C  0.21073751  0.52512077  0.91024321     0.19300
F829        F  0.20916411  0.50564620  0.93666239    -0.13600
F830        F  0.26880042  0.54028245  0.93665601    -0.15900
F831        F  0.15874692  0.54510849  0.82854548    -0.15900
F832        F  0.21813774  0.58113317  0.82901157    -0.13600
O833        O  0.79314644  0.53908043  0.38193604    -0.81000
C834        C  0.87263649  0.59839271  0.31467709     0.98400
O835        O  0.84621012  0.61651619  0.31689588    -0.70100
O836        O  0.79522991  0.56933781  0.31119063    -0.73700
Al837      Al  0.81642112  0.60600097  0.34220079     1.49000
C838        C  0.79414097  0.53225911  0.30876004     0.93600
O839        O  0.87147568  0.49448418  0.36695700    -0.79900
O840        O  0.88444808  0.58858560  0.42183790    -0.73500
Al841      Al  0.83374565  0.52289523  0.37424817     1.90100
O842        O  0.91043562  0.53500060  0.39208674    -0.72500
O843        O  0.88575326  0.63972229  0.37498353    -0.72400
O844        O  0.89282702  0.57985937  0.33815251    -0.78000
O845        O  0.83270704  0.65067443  0.36960086    -0.76200
O846        O  0.84575334  0.57098340  0.36559910    -1.12400
O847        O  0.78136370  0.59893174  0.36231819    -0.71600
C848        C  0.77353977  0.56853677  0.37533354     0.99200
C849        C  0.90208691  0.50104314  0.38172143     0.95600
Al850      Al  0.88929632  0.58455887  0.38040269     1.55600
O851        O  0.80975944  0.51040782  0.33166598    -0.76200
C852        C  0.86242665  0.66379722  0.37368956     0.99700
C853        C  0.87168592  0.56092381  0.43455509     0.94600
O854        O  0.85613707  0.53123530  0.41866284    -0.81500
O855        O  0.95869034  0.53811167  0.12205015    -0.81000
C856        C  0.87966770  0.60154551  0.18726410     0.98400
O857        O  0.90623308  0.61948837  0.18524275    -0.70100
O858        O  0.95630448  0.57022404  0.19229178    -0.73700
Al859      Al  0.93638136  0.60705477  0.16066263     1.49000
C860        C  0.95648560  0.53316413  0.19505314     0.93600
O861        O  0.87858633  0.49727211  0.13669044    -0.79900
O862        O  0.86917198  0.59007137  0.08025268    -0.73500
Al863      Al  0.91741048  0.52373472  0.12942419     1.90100
O864        O  0.84106065  0.53863151  0.11035384    -0.72500
O865        O  0.86807778  0.64304100  0.12609783    -0.72400
O866        O  0.85908260  0.58407081  0.16350625    -0.78000
O867        O  0.92170605  0.65183979  0.13271406    -0.76200
O868        O  0.90648464  0.57264638  0.13721476    -1.12400
O869        O  0.97166028  0.59797542  0.14115751    -0.71600
C870        C  0.97888043  0.56706923  0.12838237     0.99200
C871        C  0.84814531  0.50486745  0.12180403     0.95600
Al872      Al  0.86338294  0.58763668  0.12152084     1.55600
O873        O  0.94058249  0.51130849  0.17231765    -0.76200
C874        C  0.89213767  0.66602934  0.12706937     0.99700
C875        C  0.88190808  0.56173797  0.06818193     0.94600
O876        O  0.89587525  0.53166678  0.08471631    -0.81500
O877        O  0.64017083  0.46900963  0.08431187    -0.81000
C878        C  0.63134539  0.39504156  0.18844468     0.98400
O879        O  0.60951565  0.41249888  0.16536026    -0.70100
O880        O  0.58954334  0.46123233  0.11425548    -0.73700
Al881      Al  0.61151989  0.41113285  0.12273796     1.49000
C882        C  0.59818069  0.49449400  0.12636670     0.93600
O883        O  0.69246040  0.48629022  0.17010790    -0.79900
O884        O  0.71922751  0.40108090  0.13721816    -0.73500
Al885      Al  0.66549251  0.47492221  0.12832742     1.90100
O886        O  0.70722216  0.42734734  0.19012654    -0.72500
O887        O  0.66996350  0.34706086  0.13050522    -0.72400
O888        O  0.65768092  0.37821883  0.18496775    -0.78000
O889        O  0.61679081  0.35556649  0.12596552    -0.76200
O890        O  0.65497083  0.42592952  0.13661220    -1.12400
O891        O  0.61448460  0.41015087  0.08056510    -0.71600
C892        C  0.62584303  0.43903959  0.06802283     0.99200
C893        C  0.70872408  0.46438425  0.19262248     0.95600
Al894      Al  0.68578415  0.39127410  0.15859553     1.55600
O895        O  0.62913117  0.50102760  0.13976764    -0.76200
C896        C  0.64072032  0.33261806  0.12611657     0.99700
C897        C  0.72501852  0.43159712  0.12308861     0.94600
O898        O  0.70433453  0.46012888  0.11692988    -0.81500
O899        O  0.60905300  0.46786078  0.41985263    -0.81000
C900        C  0.61721526  0.39562601  0.31451629     0.98400
O901        O  0.63925416  0.41281034  0.33759978    -0.70100
O902        O  0.66005578  0.46110144  0.38878728    -0.73700
Al903      Al  0.63808293  0.41122404  0.38059512     1.49000
C904        C  0.65125654  0.49472671  0.37756599     0.93600
O905        O  0.55699762  0.48629153  0.33454704    -0.79900
O906        O  0.53042959  0.39967981  0.36690831    -0.73500
Al907      Al  0.58376863  0.47437282  0.37604562     1.90100
O908        O  0.54131220  0.42770051  0.31417778    -0.72500
O909        O  0.58002639  0.34587379  0.37205179    -0.72400
O910        O  0.59096174  0.37897072  0.31811076    -0.78000
O911        O  0.63335476  0.35587065  0.37756494    -0.76200
O912        O  0.59445584  0.42559607  0.36727681    -1.12400
O913        O  0.63626997  0.41013105  0.42331497    -0.71600
C914        C  0.62477450  0.43868887  0.43619416     0.99200
C915        C  0.54009682  0.46477515  0.31212485     0.95600
Al916      Al  0.56354239  0.39097980  0.34504506     1.55600
O917        O  0.62015751  0.50159029  0.36504630    -0.76200
C918        C  0.60968850  0.33235792  0.37663823     0.99700
C919        C  0.52398619  0.43033113  0.38045567     0.94600
O920        O  0.54455290  0.45898427  0.38698923    -0.81500
O921        O  0.85900812  0.96727124  0.16780496    -0.81000
C922        C  0.87907208  0.89876314  0.06484803     0.98400
O923        O  0.89770423  0.91763960  0.08870034    -0.70100
O924        O  0.91177742  0.96409217  0.14056133    -0.73700
Al925      Al  0.89172561  0.91342143  0.13008840     1.49000
C926        C  0.90248461  0.99753762  0.12897890     0.93600
O927        O  0.80910042  0.98806733  0.08222843    -0.79900
O928        O  0.78121317  0.90328840  0.10270646    -0.73500
Al929      Al  0.83514352  0.97449628  0.12391514     1.90100
O930        O  0.80431618  0.93213398  0.05617065    -0.72500
O931        O  0.83195248  0.84886233  0.11538111    -0.72400
O932        O  0.85243551  0.88051408  0.06593958    -0.78000
O933        O  0.88639310  0.85784739  0.12536718    -0.76200
O934        O  0.84824279  0.92737281  0.11388835    -1.12400
O935        O  0.88606120  0.90965532  0.17118257    -0.71600
C936        C  0.87394462  0.93763015  0.18390265     0.99200
C937        C  0.79944502  0.96884059  0.05675905     0.95600
Al938      Al  0.81983917  0.89398679  0.08754513     1.55600
O939        O  0.87148425  0.00361467  0.11511468    -0.76200
C940        C  0.86177078  0.83474347  0.12251746     0.99700
C941        C  0.77466190  0.92914667  0.12069550     0.94600
O942        O  0.79630903  0.95512433  0.13356227    -0.81500
O943        O  0.89637717  0.96571355  0.33137905    -0.81000
C944        C  0.88593528  0.89690373  0.43661771     0.98400
O945        O  0.86451143  0.91393817  0.41313266    -0.70100
O946        O  0.84470090  0.95994910  0.36044395    -0.73700
Al947      Al  0.86660440  0.91044102  0.37069739     1.49000
C948        C  0.85295155  0.99369046  0.37149501     0.93600
O949        O  0.94681977  0.98562857  0.41707302    -0.79900
O950        O  0.97413309  0.89819356  0.38548194    -0.73500
Al951      Al  0.92085906  0.97324360  0.37531777     1.90100
O952        O  0.96268869  0.92721112  0.43798914    -0.72500
O953        O  0.92395958  0.84516979  0.37987496    -0.72400
O954        O  0.91225890  0.87916495  0.43369482    -0.78000
O955        O  0.87102427  0.85551087  0.37533854    -0.76200
O956        O  0.91009128  0.92478151  0.38440175    -1.12400
O957        O  0.86978118  0.90734517  0.32879220    -0.71600
C958        C  0.88110560  0.93579629  0.31574758     0.99200
C959        C  0.96350997  0.96434985  0.43988131     0.95600
Al960      Al  0.94056018  0.89021880  0.40709643     1.55600
O961        O  0.88382289  0.00063810  0.38509877    -0.76200
C962        C  0.89425809  0.83182385  0.37555763     0.99700
C963        C  0.98061832  0.92863054  0.37164503     0.94600
O964        O  0.96036173  0.95756427  0.36529717    -0.81500
O965        O  0.54462346  0.03881913  0.13117309    -0.81000
C966        C  0.62547076  0.09864246  0.06472462     0.98400
O967        O  0.59918521  0.11707776  0.06697523    -0.70100
O968        O  0.54741962  0.07065628  0.05890653    -0.73700
Al969      Al  0.56839338  0.10577049  0.09119170     1.49000
C970        C  0.54478356  0.03374238  0.05644110     0.93600
O971        O  0.62095295  0.99393969  0.11214929    -0.79900
O972        O  0.63555259  0.08498441  0.17142893    -0.73500
Al973      Al  0.58424114  0.02180859  0.12194239     1.90100
O974        O  0.66105326  0.03138498  0.14008731    -0.72500
O975        O  0.63781044  0.13867177  0.12595218    -0.72400
O976        O  0.64506479  0.07933764  0.08801350    -0.78000
O977        O  0.58450261  0.14899578  0.11989024    -0.76200
O978        O  0.59703944  0.06992206  0.11436211    -1.12400
O979        O  0.53238215  0.09798427  0.11016709    -0.71600
C980        C  0.52479784  0.06812085  0.12398377     0.99200
C981        C  0.65194760  0.99912141  0.12637106     0.95600
Al982      Al  0.64087265  0.08252405  0.13004623     1.55600
O983        O  0.55893405  0.01124375  0.07940572    -0.76200
C984        C  0.61405752  0.16259092  0.12439272     0.99700
C985        C  0.62281137  0.05670137  0.18349848     0.94600
O986        O  0.60771312  0.02731847  0.16680166    -0.81500
O987        O  0.71019447  0.03935245  0.36707784    -0.81000
C988        C  0.63544526  0.10422288  0.43697387     0.98400
O989        O  0.66113670  0.12230265  0.43314467    -0.70100
O990        O  0.71121457  0.07353437  0.43934909    -0.73700
Al991      Al  0.68974077  0.10878421  0.40715279     1.49000
C992        C  0.71236266  0.03657577  0.44249262     0.93600
O993        O  0.63447612  0.99734231  0.38872159    -0.79900
O994        O  0.61837195  0.08723421  0.32885622    -0.73500
Al995      Al  0.67089537  0.02425620  0.37772901     1.90100
O996        O  0.59439825  0.03656645  0.36327266    -0.72500
O997        O  0.62012677  0.14237405  0.37379580    -0.72400
O998        O  0.61442698  0.08536010  0.41437353    -0.78000
O999        O  0.67332492  0.15232465  0.37846998    -0.76200
O1000       O  0.65957378  0.07318164  0.38528670    -1.12400
O1001       O  0.72390670  0.09901700  0.38641299    -0.71600
C1002       C  0.73049346  0.06820274  0.37308655     0.99200
C1003       C  0.60340479  0.00356328  0.37564732     0.95600
Al1004     Al  0.61590346  0.08675501  0.37133602     1.55600
O1005       O  0.69694754  0.01396436  0.42012517    -0.76200
C1006       C  0.64366898  0.16584212  0.37400790     0.99700
C1007       C  0.63009197  0.05841037  0.31643173     0.94600
O1008       O  0.64611595  0.02952155  0.33316975    -0.81500
C1009       C  0.62410714  0.09358607  0.23322469     0.24400
C1010       C  0.62493692  0.05745794  0.21755204    -0.23700
C1011       C  0.62572458  0.02175979  0.23424950     0.19300
C1012       C  0.62654555  0.02211973  0.26606395     0.24400
C1013       C  0.62609502  0.05823816  0.28193395    -0.23600
C1014       C  0.62445063  0.09395368  0.26502610     0.19300
F1015       F  0.62417529  0.12938418  0.27948646    -0.13600
F1016       F  0.62218516  0.12857294  0.21758219    -0.15900
F1017       F  0.62757988  0.98692314  0.28126631    -0.15900
F1018       F  0.62632520  0.98625992  0.21994677    -0.13600
C1019       C  0.62659909  0.13536730  0.01642192     0.24400
C1020       C  0.63153060  0.09961032  0.03356810    -0.23700
C1021       C  0.63602755  0.06426383  0.01844997     0.19300
C1022       C  0.62859771  0.13979337  0.48411703     0.24400
C1023       C  0.63191639  0.10403230  0.46913893    -0.23600
C1024       C  0.63718107  0.06863888  0.48676757     0.19300
F1025       F  0.64203941  0.03399661  0.47311279    -0.13600
F1026       F  0.62214049  0.16987041  0.03046926    -0.15900
F1027       F  0.62489632  0.17454736  0.46789571    -0.15900
F1028       F  0.64009885  0.02919696  0.03422586    -0.13600
C1029       C  0.49426645  0.01955546  0.47254356     0.24400
C1030       C  0.98484079  0.98308037  0.46914541    -0.23700
C1031       C  0.01079438  0.96127010  0.49092234     0.19300
C1032       C  0.00572855  0.97949481  0.02581482     0.24400
C1033       C  0.52407567  0.01707226  0.02622266    -0.24400
C1034       C  0.49803205  0.03997950  0.00553112     0.19300
F1035       F  0.49146385  0.07753109  0.01311208    -0.13600
F1036       F  0.48785617  0.04012018  0.44497778    -0.15900
F1037       F  0.00828792  0.96095367  0.05369415    -0.15900
F1038       F  0.01713137  0.92288476  0.48532003    -0.13600
C1039       C  0.79428345  0.06802087  0.39308240     0.24400
C1040       C  0.76416329  0.06233383  0.36780495    -0.23700
C1041       C  0.76601579  0.04044182  0.34137675     0.19300
C1042       C  0.79629553  0.02145947  0.34149070     0.24400
C1043       C  0.82534850  0.02332972  0.36825698    -0.23600
C1044       C  0.82469122  0.04855201  0.39334588     0.19300
F1045       F  0.85218100  0.05091487  0.41953186    -0.13600
F1046       F  0.79325607  0.08827202  0.41928167    -0.15900
F1047       F  0.79646368  0.99871592  0.31620615    -0.15900
F1048       F  0.73759607  0.03451412  0.31654465    -0.13600
C1049       C  0.51898852  0.95094963  0.34706440     0.24400
C1050       C  0.51574130  0.93501548  0.37535873    -0.23700
C1051       C  0.54452244  0.93492411  0.40250812     0.19300
C1052       C  0.57478466  0.95414550  0.40208485     0.24400
C1053       C  0.57659418  0.97365218  0.37453252    -0.23600
C1054       C  0.54907171  0.97002147  0.34664804     0.19300
F1055       F  0.55049681  0.98738819  0.31936285    -0.13600
F1056       F  0.49196406  0.95083804  0.32036369    -0.15900
F1057       F  0.60076842  0.95743091  0.42941890    -0.15900
F1058       F  0.54205423  0.92054733  0.43042100    -0.13600
C1059       C  0.77499147  0.96862495  0.99810685     0.24400
C1060       C  0.78023657  0.98841816  0.02716728    -0.23700
C1061       C  0.76395054  0.02493990  0.02784584     0.19300
C1062       C  0.76050985  0.04098165  0.49242056     0.24400
C1063       C  0.73230802  0.02002901  0.47304807    -0.23600
C1064       C  0.72303638  0.98369202  0.48345727     0.19300
F1065       F  0.69506934  0.96373598  0.46593480    -0.13600
F1066       F  0.79224290  0.93483943  0.99608122    -0.15900
F1067       F  0.77022024  0.07620528  0.48294047    -0.15900
F1068       F  0.76928686  0.04566609  0.05519200    -0.13600
C1069       C  0.88290503  0.93345627  0.01640711     0.24400
C1070       C  0.88632859  0.89839714  0.03429181    -0.23700
C1071       C  0.88840201  0.86190508  0.01978440     0.19300
C1072       C  0.91042052  0.89711566  0.49562360     0.24400
C1073       C  0.88152660  0.89827472  0.46852747    -0.23600
C1074       C  0.84907687  0.90197359  0.47248588     0.19300
F1075       F  0.82074594  0.90349426  0.44699768    -0.13600
F1076       F  0.88057467  0.96904908  0.02993109    -0.15900
F1077       F  0.94237966  0.89491901  0.49283488    -0.15900
F1078       F  0.89160058  0.82769441  0.03665123    -0.13600
C1079       C  0.88273895  0.90073740  0.23521553     0.24400
C1080       C  0.87645179  0.93649130  0.21791745    -0.23700
C1081       C  0.87047048  0.97135503  0.23304072     0.19300
C1082       C  0.87082883  0.97050298  0.26452723     0.24400
C1083       C  0.87712710  0.93494566  0.28172141    -0.23600
C1084       C  0.88298137  0.89999673  0.26691823     0.19300
F1085       F  0.89024779  0.86552732  0.28347283    -0.13600
F1086       F  0.88833266  0.86646457  0.22148532    -0.15900
F1087       F  0.86492341  0.00467196  0.27827501    -0.15900
F1088       F  0.86462557  0.00670061  0.21759625    -0.13600
C1089       C  0.98829738  0.04612119  0.15622854     0.24400
C1090       C  0.98941293  0.06521206  0.12832153    -0.23700
C1091       C  0.95896605  0.06968690  0.10329942     0.19300
C1092       C  0.92889267  0.05110218  0.10471817     0.24400
C1093       C  0.92906181  0.02786648  0.13113142    -0.23600
C1094       C  0.95831858  0.02786943  0.15771363     0.19300
F1095       F  0.95867864  0.00737492  0.18427045    -0.13600
F1096       F  0.01713407  0.04190583  0.18095839    -0.15900
F1097       F  0.90096537  0.05186829  0.07884497    -0.15900
F1098       F  0.95937453  0.08737974  0.07584215    -0.13600
C1099       C  0.73598322  0.94513591  0.15316961     0.24400
C1100       C  0.73993469  0.93315196  0.12405283    -0.23700
C1101       C  0.71153159  0.93542289  0.09667603     0.19300
C1102       C  0.68100512  0.95322301  0.09792375     0.24400
C1103       C  0.67855703  0.96927414  0.12646634    -0.23600
C1104       C  0.70558325  0.96295935  0.15437181     0.19300
F1105       F  0.70332609  0.97644570  0.18258443    -0.13600
F1106       F  0.76255317  0.94233820  0.18011950    -0.15900
F1107       F  0.65535137  0.95872042  0.07063752    -0.15900
F1108       F  0.71465276  0.92502072  0.06803193    -0.13600
C1109       C  0.65112864  0.27582907  0.39243451     0.24400
C1110       C  0.61743511  0.28920150  0.37800004    -0.23700
C1111       C  0.59315525  0.26191342  0.36076438     0.19300
C1112       C  0.60228152  0.22233525  0.35797484     0.24400
C1113       C  0.63596238  0.20898264  0.37241079    -0.23600
C1114       C  0.66023760  0.23624910  0.38967143     0.19300
F1115       F  0.69249985  0.22430719  0.40509453    -0.13600
F1116       F  0.67537764  0.30111083  0.40953899    -0.15900
F1117       F  0.57804660  0.19698542  0.34095004    -0.15900
F1118       F  0.56083184  0.27378896  0.34552024    -0.13600
C1119       C  0.65387048  0.22058702  0.12668517     0.24400
C1120       C  0.62113563  0.20611307  0.12535586    -0.23700
C1121       C  0.59475826  0.23373994  0.12240796     0.19300
C1122       C  0.60098377  0.27444655  0.12150583     0.24400
C1123       C  0.63385966  0.28903994  0.12359769    -0.23600
C1124       C  0.66015585  0.26143087  0.12591631     0.19300
F1125       F  0.69208438  0.27383020  0.12770267    -0.13600
F1126       F  0.68010487  0.19529440  0.12844253    -0.15900
F1127       F  0.57443183  0.29953332  0.11897078    -0.15900
F1128       F  0.56269698  0.22151003  0.12025510    -0.13600
C1129       C  0.62650737  0.47381034  0.01836863     0.24400
C1130       C  0.62400006  0.43821026  0.03410897    -0.23700
C1131       C  0.62330022  0.40199163  0.01804253     0.19300
C1132       C  0.64090412  0.40486446  0.48968504     0.24400
C1133       C  0.62840801  0.43839965  0.47067901    -0.23600
C1134       C  0.61718022  0.47138154  0.48465171     0.19300
F1135       F  0.60489819  0.50461216  0.46770547    -0.13600
F1136       F  0.62678213  0.50946953  0.03272648    -0.15900
F1137       F  0.65237597  0.37265199  0.47754850    -0.15900
F1138       F  0.62147179  0.36698857  0.03260587    -0.13600
C1139       C  0.59177666  0.39466213  0.25554027     0.24400
C1140       C  0.62115443  0.39553508  0.28238784    -0.23700
C1141       C  0.65332140  0.39680339  0.27782854     0.19300
C1142       C  0.65648234  0.39628521  0.24728067     0.24400
C1143       C  0.62719162  0.39510704  0.22046813    -0.23600
C1144       C  0.59495919  0.39478004  0.22495752     0.19300
F1145       F  0.56629921  0.39384813  0.19971493    -0.13600
F1146       F  0.56002306  0.39453339  0.25883491    -0.15900
F1147       F  0.68815081  0.39780874  0.24394637    -0.15900
F1148       F  0.68203126  0.39786746  0.30300567    -0.13600
C1149       C  0.85098739  0.72313469  0.11132388     0.24400
C1150       C  0.88487777  0.70935693  0.12400087    -0.23700
C1151       C  0.91065410  0.73714847  0.13698427     0.19300
C1152       C  0.90283003  0.77750520  0.13748698     0.24400
C1153       C  0.86891597  0.79132771  0.12501721    -0.23600
C1154       C  0.84312569  0.76353018  0.11185932     0.19300
F1155       F  0.81036266  0.77540730  0.09869096    -0.13600
F1156       F  0.82518103  0.69748683  0.09815310    -0.15900
F1157       F  0.92878151  0.80304539  0.15044003    -0.15900
F1158       F  0.94339613  0.72524988  0.15019793    -0.13600
C1159       C  0.50253709  0.53957252  0.24803831     0.24400
C1160       C  0.97671771  0.51575583  0.22533947    -0.23700
C1161       C  0.96946613  0.47771424  0.23448615     0.19300
C1162       C  0.98940938  0.46144192  0.26302914     0.24400
C1163       C  0.51801846  0.48301198  0.28309658    -0.23600
C1164       C  0.52300999  0.52262126  0.27585028     0.19300
F1165       F  0.54824924  0.54486716  0.29524609    -0.13600
F1166       F  0.50902930  0.57751859  0.24130405    -0.15900
F1167       F  0.98128546  0.42487147  0.27144173    -0.15900
F1168       F  0.94277702  0.45649845  0.21611757    -0.13600
C1169       C  0.75968405  0.46178793  0.09161754     0.24400
C1170       C  0.75826489  0.43760090  0.11704668    -0.23700
C1171       C  0.78884035  0.42916027  0.14109659     0.19300
C1172       C  0.81938239  0.44835973  0.14152328     0.24400
C1173       C  0.81973070  0.47608403  0.11784605    -0.23600
C1174       C  0.79003954  0.48060510  0.09189878     0.19300
F1175       F  0.78970789  0.50557154  0.06769070    -0.13600
F1176       F  0.73085593  0.47006212  0.06776752    -0.15900
F1177       F  0.84753434  0.44289603  0.16670466    -0.15900
F1178       F  0.78835629  0.40618689  0.16617290    -0.13600
C1179       C  0.54258991  0.52532047  0.09722513     0.24400
C1180       C  0.57118774  0.52450154  0.12438843    -0.23700
C1181       C  0.57084696  0.54794066  0.15057985     0.19300
C1182       C  0.54087571  0.56793461  0.15089061     0.24400
C1183       C  0.51103160  0.56472087  0.12497735    -0.23600
C1184       C  0.51284690  0.54511527  0.09754646     0.19300
F1185       F  0.98663151  0.53625817  0.07133985    -0.13600
F1186       F  0.54263875  0.50454143  0.07096279    -0.15900
F1187       F  0.53981955  0.58609472  0.17796087    -0.15900
F1188       F  0.59810702  0.54804684  0.17706300    -0.13600
C1189       C  0.84528422  0.73550175  0.37286289     0.24400
C1190       C  0.87045019  0.70686991  0.37461814    -0.23700
C1191       C  0.90343653  0.71973751  0.37495047     0.19300
C1192       C  0.91099156  0.76010708  0.37426169     0.24400
C1193       C  0.88597724  0.78875680  0.37306539    -0.23600
C1194       C  0.85274939  0.77582392  0.37190040     0.19300
F1195       F  0.82723863  0.80209740  0.37022973    -0.13600
F1196       F  0.81321171  0.72467126  0.37207189    -0.15900
F1197       F  0.94299903  0.77097946  0.37488965    -0.15900
F1198       F  0.92860067  0.69336259  0.37563289    -0.13600
C1199       C  0.77366526  0.47387599  0.27342808     0.24400
C1200       C  0.77321201  0.51488808  0.27869381    -0.23700
C1201       C  0.75151774  0.53925476  0.25521431     0.19300
C1202       C  0.73035193  0.52288500  0.22744783     0.24400
C1203       C  0.73061272  0.48182186  0.22227017    -0.23600
C1204       C  0.75279386  0.45756055  0.24546933     0.19300
F1205       F  0.75481436  0.41787301  0.24116725    -0.13600
F1206       F  0.79439654  0.44936065  0.29519051    -0.15900
F1207       F  0.70945208  0.54742974  0.20582727    -0.15900
F1208       F  0.75014887  0.57911674  0.25908610    -0.13600
C1209       C  0.87560886  0.63508124  0.26700579     0.24400
C1210       C  0.87810652  0.59890295  0.28332665    -0.23700
C1211       C  0.87900566  0.56326483  0.26715143     0.19300
C1212       C  0.87718360  0.56393484  0.23497211     0.24400
C1213       C  0.87469857  0.60024843  0.21876224    -0.23600
C1214       C  0.87447036  0.63576586  0.23515032     0.19300
F1215       F  0.87320357  0.67117374  0.22020116    -0.13600
F1216       F  0.87415408  0.66983229  0.28202610    -0.15900
F1217       F  0.87907811  0.52932085  0.21992303    -0.15900
F1218       F  0.88031239  0.52788918  0.28216860    -0.13600
C1219       C  0.87540106  0.52680804  0.48531643     0.24400
C1220       C  0.87443217  0.56241483  0.46853747    -0.23700
C1221       C  0.87368719  0.59870428  0.48398775     0.19300
C1222       C  0.86996492  0.59704203  0.01544433     0.24400
C1223       C  0.88136362  0.56310777  0.03439431    -0.23600
C1224       C  0.89372832  0.53053091  0.02095890     0.19300
F1225       F  0.90575919  0.49733104  0.03805194    -0.13600
F1226       F  0.87619195  0.49118760  0.47124148    -0.15900
F1227       F  0.85827112  0.62933874  0.02727703    -0.15900
F1228       F  0.87162829  0.63354656  0.46811668    -0.13600
C1229       C  0.95796201  0.47324953  0.41375599     0.24400
C1230       C  0.92932014  0.47077863  0.38660470    -0.23700
C1231       C  0.93026351  0.44440570  0.36234436     0.19300
C1232       C  0.96087682  0.42526358  0.36323283     0.24400
C1233       C  0.99080354  0.43261500  0.38827480    -0.23600
C1234       C  0.98846873  0.45439948  0.41452073     0.19300
F1235       F  0.51536443  0.46159335  0.43721648    -0.13600
F1236       F  0.95727219  0.49667864  0.43851534    -0.15900
F1237       F  0.96233125  0.40408329  0.33758993    -0.15900
F1238       F  0.90296282  0.44089674  0.33610732    -0.13600
C1239       C  0.73673534  0.54498013  0.40720907     0.24400
C1240       C  0.73939225  0.56382776  0.37973865    -0.23700
C1241       C  0.71004428  0.56657557  0.35325523     0.19300
C1242       C  0.67971215  0.54705049  0.35318948     0.24400
C1243       C  0.67839177  0.52468592  0.37966098    -0.23600
C1244       C  0.70655753  0.52581489  0.40722553     0.19300
F1245       F  0.70565278  0.50583881  0.43363333    -0.13600
F1246       F  0.76444635  0.54210295  0.43319072    -0.15900
F1247       F  0.65311846  0.54641718  0.32617076    -0.15900
F1248       F  0.71199927  0.58382749  0.32610427    -0.13600
O1249       O  0.79742941  0.54045719  0.88796222    -0.81000
C1250       C  0.87024950  0.60226604  0.81444339     0.98400
O1251       O  0.84466861  0.62032585  0.81842598    -0.70100
O1252       O  0.79632638  0.57025773  0.81385072    -0.73700
Al1253     Al  0.81655493  0.60722847  0.84466336     1.49000
C1254       C  0.79519996  0.53307876  0.81208872     0.93600
O1255       O  0.87290899  0.49675471  0.86727206    -0.79900
O1256       O  0.88858940  0.59067789  0.92276730    -0.73500
Al1257     Al  0.83651877  0.52458957  0.87738946     1.90100
O1258       O  0.91257112  0.53790359  0.89001086    -0.72500
O1259       O  0.88540422  0.64262976  0.87601158    -0.72400
O1260       O  0.89153507  0.58375066  0.83715276    -0.78000
O1261       O  0.83218934  0.65170029  0.87222734    -0.76200
O1262       O  0.84719430  0.57292202  0.86755593    -1.12400
O1263       O  0.78258620  0.59820936  0.86522483    -0.71600
C1264       C  0.77655398  0.56861318  0.88009446     0.99200
C1265       C  0.90390972  0.50392941  0.87971702     0.95600
Al1266     Al  0.89059400  0.58744156  0.88033440     1.55600
O1267       O  0.81007417  0.51180078  0.83554780    -0.76200
C1268       C  0.86163452  0.66554134  0.87622259     0.99700
C1269       C  0.87735148  0.56279619  0.93644620     0.94600
O1270       O  0.86175495  0.53266416  0.92136787    -0.81500
O1271       O  0.95901294  0.54783687  0.61615403    -0.81000
C1272       C  0.87760850  0.60264710  0.68699749     0.98400
O1273       O  0.90390481  0.62138793  0.68572064    -0.70100
O1274       O  0.95131639  0.56831788  0.69577612    -0.73700
Al1275     Al  0.93658056  0.60693689  0.66440245     1.49000
C1276       C  0.95843493  0.53228267  0.69432363     0.93600
O1277       O  0.88539722  0.49724496  0.63641111    -0.79900
O1278       O  0.86930567  0.59167669  0.58020279    -0.73500
Al1279     Al  0.92124492  0.52718334  0.62693494     1.90100
O1280       O  0.84474744  0.53715938  0.61193163    -0.72500
O1281       O  0.87042728  0.64372393  0.62608706    -0.72400
O1282       O  0.85898184  0.58392334  0.66313905    -0.78000
O1283       O  0.92510145  0.65234179  0.63652288    -0.76200
O1284       O  0.90805524  0.57398235  0.63761031    -1.12400
O1285       O  0.97564797  0.59658574  0.64995548    -0.71600
C1286       C  0.98170430  0.57172985  0.63094394     0.99200
C1287       C  0.85427023  0.50331638  0.62261173     0.95600
Al1288     Al  0.86456933  0.58804780  0.62171250     1.55600
O1289       O  0.94930433  0.51366052  0.66843096    -0.76200
C1290       C  0.89521602  0.66658818  0.62875332     0.99700
C1291       C  0.88045647  0.56330527  0.56712273     0.94600
O1292       O  0.89600686  0.53394233  0.58316049    -0.81500
O1293       O  0.64911375  0.46793753  0.58488296    -0.81000
C1294       C  0.63843377  0.39560164  0.69023634     0.98400
O1295       O  0.61712027  0.41326262  0.66699079    -0.70100
O1296       O  0.59709524  0.46127637  0.61515084    -0.73700
Al1297     Al  0.61919196  0.41148981  0.62415998     1.49000
C1298       C  0.60553051  0.49503573  0.62615152     0.93600
O1299       O  0.69953538  0.48637671  0.67127843    -0.79900
O1300       O  0.72661876  0.39958552  0.63891712    -0.73500
Al1301     Al  0.67359120  0.47466380  0.62913820     1.90100
O1302       O  0.71476210  0.42750446  0.69142783    -0.72500
O1303       O  0.67718959  0.34676434  0.63270587    -0.72400
O1304       O  0.66500621  0.37887124  0.68694132    -0.78000
O1305       O  0.62387214  0.35623601  0.62743733    -0.76200
O1306       O  0.66264579  0.42594632  0.63791195    -1.12400
O1307       O  0.62219754  0.40979083  0.58197581    -0.71600
C1308       C  0.63383367  0.43813484  0.56909131     0.99200
C1309       C  0.71570127  0.46462685  0.69391743     0.95600
Al1310     Al  0.69316526  0.39112923  0.66033734     1.55600
O1311       O  0.63655867  0.50208489  0.63903098    -0.76200
C1312       C  0.64755127  0.33316078  0.62745115     0.99700
C1313       C  0.73318616  0.42978686  0.62496677     0.94600
O1314       O  0.71322884  0.45904261  0.61894295    -0.81500
O1315       O  0.61165972  0.46788982  0.92141521    -0.81000
C1316       C  0.62116069  0.39752496  0.81583419     0.98400
O1317       O  0.64325955  0.41313047  0.83967547    -0.70100
O1318       O  0.66297956  0.46049384  0.89195221    -0.73700
Al1319     Al  0.64078202  0.41098639  0.88247252     1.49000
C1320       C  0.65460325  0.49425495  0.88084114     0.93600
O1321       O  0.56091184  0.48809756  0.83599682    -0.79900
O1322       O  0.53453038  0.39971410  0.86885953    -0.73500
Al1323     Al  0.58707490  0.47504766  0.87757423     1.90100
O1324       O  0.54376974  0.42996128  0.81581585    -0.72500
O1325       O  0.58229221  0.34649413  0.87141398    -0.72400
O1326       O  0.59365986  0.38218796  0.81818313    -0.78000
O1327       O  0.63587601  0.35581648  0.87858085    -0.76200
O1328       O  0.59746880  0.42623659  0.86848923    -1.12400
O1329       O  0.63734120  0.40903469  0.92476348    -0.71600
C1330       C  0.62599674  0.43789167  0.93749036     0.99200
C1331       C  0.54338028  0.46700535  0.81362810     0.95600
Al1332     Al  0.56640296  0.39242357  0.84573302     1.55600
O1333       O  0.62380309  0.50147791  0.86736888    -0.76200
C1334       C  0.61179635  0.33266164  0.87682759     0.99700
C1335       C  0.52843489  0.43002440  0.88293695     0.94600
O1336       O  0.54801409  0.45953782  0.88806625    -0.81500
O1337       O  0.86053391  0.96907559  0.66815798    -0.81000
C1338       C  0.86986167  0.90110197  0.56186049     0.98400
O1339       O  0.89195333  0.91697874  0.58551165    -0.70100
O1340       O  0.91229464  0.96365344  0.63784253    -0.73700
Al1341     Al  0.89021853  0.91399347  0.62834661     1.49000
C1342       C  0.90380113  0.99761918  0.62720945     0.93600
O1343       O  0.81004568  0.99076652  0.58287487    -0.79900
O1344       O  0.78364838  0.90130653  0.61525155    -0.73500
Al1345     Al  0.83601201  0.97722954  0.62443905     1.90100
O1346       O  0.79281340  0.93255885  0.56250198    -0.72500
O1347       O  0.83250227  0.84823977  0.61759934    -0.72400
O1348       O  0.84282986  0.88498472  0.56452212    -0.78000
O1349       O  0.88589252  0.85859844  0.62419395    -0.76200
O1350       O  0.84670360  0.92869706  0.61492981    -1.12400
O1351       O  0.88751482  0.91125148  0.67085481    -0.71600
C1352       C  0.87540528  0.93906846  0.68395768     0.99200
C1353       C  0.79248753  0.96968930  0.56050444     0.95600
Al1354     Al  0.81579406  0.89465240  0.59216772     1.55600
O1355       O  0.87280658  0.00487322  0.61466354    -0.76200
C1356       C  0.86228042  0.83489064  0.62284399     0.99700
C1357       C  0.77681718  0.93163315  0.62891112     0.94600
O1358       O  0.79638991  0.96123624  0.63450134    -0.81500
O1359       O  0.89075594  0.96461323  0.83023076    -0.81000
C1360       C  0.88356676  0.89366283  0.93673586     0.98400
O1361       O  0.86221342  0.91181736  0.91387735    -0.70100
O1362       O  0.84140896  0.95794161  0.86129538    -0.73700
Al1363     Al  0.86367395  0.90829381  0.87076098     1.49000
C1364       C  0.84992519  0.99181074  0.87215061     0.93600
O1365       O  0.94535986  0.98514557  0.91510555    -0.79900
O1366       O  0.97275594  0.90152084  0.88884087    -0.73500
Al1367     Al  0.91708764  0.97199707  0.87378100     1.90100
O1368       O  0.95585274  0.92749127  0.93914489    -0.72500
O1369       O  0.92390688  0.84581590  0.87954536    -0.72400
O1370       O  0.90875499  0.87498262  0.93264539    -0.78000
O1371       O  0.87018714  0.85313120  0.87494260    -0.76200
O1372       O  0.90687234  0.92366812  0.88401774    -1.12400
O1373       O  0.86612313  0.90534589  0.82827389    -0.71600
C1374       C  0.87657757  0.93408182  0.81483801     0.99200
C1375       C  0.95890075  0.96451460  0.93943913     0.95600
Al1376     Al  0.93771161  0.89022142  0.90773319     1.55600
O1377       O  0.88093668  0.99893518  0.88517422    -0.76200
C1378       C  0.89459102  0.83107244  0.87478714     0.99700
C1379       C  0.97757521  0.92979113  0.87199017     0.94600
O1380       O  0.95514536  0.95583506  0.86147997    -0.81500
O1381       O  0.54677330  0.04343010  0.63336845    -0.81000
C1382       C  0.62730047  0.10357136  0.56464825     0.98400
O1383       O  0.60044912  0.12092781  0.56633677    -0.70100
O1384       O  0.55072862  0.07061411  0.55827386    -0.73700
Al1385     Al  0.56945617  0.10812513  0.58984825     1.49000
C1386       C  0.54724075  0.03357621  0.55784963     0.93600
O1387       O  0.62369699  0.99752000  0.61589165    -0.79900
O1388       O  0.63707496  0.09092922  0.67217483    -0.73500
Al1389     Al  0.58645003  0.02597546  0.62427434     1.90100
O1390       O  0.66309880  0.03802148  0.64081382    -0.72500
O1391       O  0.63737011  0.14323053  0.62620058    -0.72400
O1392       O  0.64685068  0.08485687  0.58834509    -0.78000
O1393       O  0.58336595  0.15313372  0.61756370    -0.76200
O1394       O  0.59864086  0.07390567  0.61482383    -1.12400
O1395       O  0.53282026  0.09945638  0.60740478    -0.71600
C1396       C  0.52581845  0.07104000  0.62295925     0.99200
C1397       C  0.65454510  0.00416893  0.63008934     0.95600
Al1398     Al  0.64210419  0.08802993  0.63045611     1.55600
O1399       O  0.56065998  0.01295393  0.58219032    -0.76200
C1400       C  0.61328621  0.16664214  0.62411539     0.99700
C1401       C  0.62504160  0.06263311  0.68480653     0.94600
O1402       O  0.60994358  0.03313415  0.66855718    -0.81500
O1403       O  0.70823232  0.04051704  0.86680142    -0.81000
C1404       C  0.63313616  0.10191601  0.93742074     0.98400
O1405       O  0.65871997  0.12079611  0.93415988    -0.70100
O1406       O  0.70879085  0.07229187  0.94047227    -0.73700
Al1407     Al  0.68804913  0.10799591  0.90875265     1.49000
C1408       C  0.71143669  0.03530574  0.94244238     0.93600
O1409       O  0.63298847  0.99680499  0.88799515    -0.79900
O1410       O  0.61794528  0.08908952  0.82970297    -0.73500
Al1411     Al  0.66950479  0.02444535  0.87753585     1.90100
O1412       O  0.59358017  0.03684191  0.86249643    -0.72500
O1413       O  0.61901813  0.14244410  0.87561510    -0.72400
O1414       O  0.61235040  0.08359913  0.91438061    -0.78000
O1415       O  0.67232669  0.15168966  0.88034384    -0.76200
O1416       O  0.65814172  0.07294115  0.88602614    -1.12400
O1417       O  0.72288408  0.09870793  0.88875726    -0.71600
C1418       C  0.72897004  0.06882033  0.87411876     0.99200
C1419       C  0.60213068  0.00320424  0.87381596     0.95600
Al1420     Al  0.61460141  0.08684928  0.87181219     1.55600
O1421       O  0.69639757  0.01314640  0.91960165    -0.76200
C1422       C  0.64286073  0.16557136  0.87591656     0.99700
C1423       C  0.62959860  0.06054997  0.81695335     0.94600
O1424       O  0.64459682  0.03080293  0.83321469    -0.81500
C1425       C  0.62465486  0.09849709  0.73459306     0.24400
C1426       C  0.62778395  0.06304583  0.71895808    -0.23700
C1427       C  0.63026922  0.02695104  0.73546606     0.19300
C1428       C  0.62977102  0.02618189  0.76684863     0.24400
C1429       C  0.62683965  0.06158673  0.78272185    -0.23600
C1430       C  0.62408356  0.09777357  0.76616702     0.19300
F1431       F  0.62147798  0.13258524  0.78065344    -0.13600
F1432       F  0.62104351  0.13370205  0.71903787    -0.15900
F1433       F  0.63183343  0.99047845  0.78154772    -0.15900
F1434       F  0.63346093  0.99209078  0.72125288    -0.13600
C1435       C  0.63830780  0.06886777  0.51878399     0.24400
C1436       C  0.63369688  0.10444531  0.53350296    -0.23700
C1437       C  0.62865093  0.13989569  0.51579513     0.19300
C1438       C  0.63479196  0.06471966  0.98642395     0.24400
C1439       C  0.62931705  0.10052131  0.96931778    -0.23600
C1440       C  0.62597901  0.13587796  0.98470307     0.19300
F1441       F  0.62185340  0.17089913  0.96884757    -0.13600
F1442       F  0.64216840  0.03407938  0.53494646    -0.15900
F1443       F  0.63983067  0.03047691  0.97230251    -0.15900
F1444       F  0.62342207  0.17462098  0.52915941    -0.13600
C1445       C  0.47772762  0.02392782  0.97716849     0.24400
C1446       C  0.97984456  0.98304736  0.96881214    -0.23700
C1447       C  0.98382982  0.96398435  0.99803182     0.19300
C1448       C  0.03099239  0.97906364  0.51859172     0.24400
C1449       C  0.52540431  0.01484657  0.52865568    -0.24400
C1450       C  0.51723148  0.03547562  0.49965533     0.19300
F1451       F  0.53176812  0.07105085  0.49727755    -0.13600
F1452       F  0.45234377  0.04638192  0.95809414    -0.15900
F1453       F  0.05605654  0.95732508  0.53881533    -0.15900
F1454       F  0.96609641  0.93053827  0.99985976    -0.13600
C1455       C  0.79265266  0.06759638  0.89410965     0.24400
C1456       C  0.76249877  0.06289148  0.86872179    -0.23700
C1457       C  0.76390352  0.04102579  0.84213827     0.19300
C1458       C  0.79354556  0.02058215  0.84237404     0.24400
C1459       C  0.82262687  0.02174083  0.86914608    -0.23600
C1460       C  0.82259973  0.04723972  0.89424809     0.19300
F1461       F  0.85022398  0.04906969  0.92034600    -0.13600
F1462       F  0.79199342  0.08767864  0.92049620    -0.15900
F1463       F  0.79301609  0.99733765  0.81717406    -0.15900
F1464       F  0.73542531  0.03628967  0.81712223    -0.13600
C1465       C  0.51569411  0.95634064  0.84235261     0.24400
C1466       C  0.51387445  0.93316570  0.86813838    -0.23700
C1467       C  0.54420694  0.92550011  0.89277820     0.19300
C1468       C  0.57463111  0.94536936  0.89358040     0.24400
C1469       C  0.57486801  0.97295558  0.86975595    -0.23600
C1470       C  0.54574196  0.97601422  0.84313988     0.19300
F1471       F  0.54546279  0.00073856  0.81880544    -0.13600
F1472       F  0.48722730  0.96336125  0.81777609    -0.15900
F1473       F  0.60258239  0.94071863  0.91910339    -0.15900
F1474       F  0.54350102  0.90265032  0.91785974    -0.13600
C1475       C  0.74212513  0.96797565  0.51240952     0.24400
C1476       C  0.77105068  0.98816083  0.53128683    -0.23700
C1477       C  0.77969508  0.02518600  0.52137223     0.19300
C1478       C  0.74102290  0.03984141  0.00031574     0.24400
C1479       C  0.73414185  0.01860948  0.97171404    -0.23600
C1480       C  0.75185305  0.98333595  0.97069780     0.19300
F1481       F  0.74748772  0.96360978  0.94304093    -0.13600
F1482       F  0.73193092  0.93322440  0.52218254    -0.15900
F1483       F  0.72506953  0.07475283  0.00188086    -0.15900
F1484       F  0.80732239  0.04552170  0.53912279    -0.13600
C1485       C  0.84549587  0.90335898  0.50288324     0.24400
C1486       C  0.87436209  0.90136009  0.52997223    -0.23700
C1487       C  0.90684494  0.89892118  0.52600845     0.19300
C1488       C  0.88649639  0.86030232  0.98773536     0.24400
C1489       C  0.88127725  0.89508035  0.96933270    -0.23600
C1490       C  0.88018052  0.93179210  0.98405017     0.19300
F1491       F  0.87755863  0.96604090  0.96731984    -0.13600
F1492       F  0.81365779  0.90729945  0.50572496    -0.15900
F1493       F  0.88927545  0.82464070  0.97449814    -0.15900
F1494       F  0.93511882  0.89730761  0.55151644    -0.13600
C1495       C  0.88539922  0.90167962  0.73565966     0.24400
C1496       C  0.87681136  0.93701122  0.71792363    -0.23700
C1497       C  0.86646808  0.97018300  0.73227084     0.19300
C1498       C  0.86462698  0.96806945  0.76311556     0.24400
C1499       C  0.87326566  0.93306282  0.78076354    -0.23600
C1500       C  0.88355751  0.89974677  0.76684287     0.19300
F1501       F  0.89328102  0.86596066  0.78387692    -0.13600
F1502       F  0.89554057  0.86903214  0.72295909    -0.15900
F1503       F  0.85452399  0.00067580  0.77594144    -0.15900
F1504       F  0.85827692  0.00523533  0.71669347    -0.13600
C1505       C  0.99051240  0.04518128  0.65541289     0.24400
C1506       C  0.99155271  0.06695334  0.62862216    -0.23700
C1507       C  0.96091017  0.07283590  0.60400504     0.19300
C1508       C  0.93082012  0.05322064  0.60458150     0.24400
C1509       C  0.93116441  0.02741453  0.62971754    -0.23600
C1510       C  0.96074073  0.02561127  0.65593072     0.19300
F1511       F  0.96156484  0.00247574  0.68130090    -0.13600
F1512       F  0.01934691  0.03976402  0.67993699    -0.15900
F1513       F  0.90257595  0.05618420  0.57914469    -0.15900
F1514       F  0.96101557  0.09357293  0.57771140    -0.13600
C1515       C  0.74112358  0.95700144  0.66131375     0.24400
C1516       C  0.74330805  0.93599573  0.63462618    -0.23700
C1517       C  0.71331725  0.92993379  0.60931729     0.19300
C1518       C  0.68276758  0.94892793  0.60900297     0.24400
C1519       C  0.68187283  0.97406943  0.63401672    -0.23600
C1520       C  0.71066473  0.97568432  0.66110242     0.19300
F1521       F  0.71008743  0.99795909  0.68650334    -0.13600
F1522       F  0.76935702  0.96237888  0.68645998    -0.15900
F1523       F  0.65540176  0.94641911  0.58272655    -0.15900
F1524       F  0.71462780  0.91003067  0.58305894    -0.13600
C1525       C  0.65211977  0.27544695  0.89366876     0.24400
C1526       C  0.61885723  0.28949113  0.87860110    -0.23700
C1527       C  0.59405477  0.26257632  0.86157975     0.19300
C1528       C  0.60240331  0.22265510  0.85948434     0.24400
C1529       C  0.63575823  0.20870849  0.87424285    -0.23600
C1530       C  0.66052086  0.23557353  0.89139521     0.19300
F1531       F  0.69250010  0.22300179  0.90709740    -0.13600
F1532       F  0.67661641  0.30032211  0.91098864    -0.15900
F1533       F  0.57772700  0.19759069  0.84273175    -0.15900
F1534       F  0.56203217  0.27508607  0.84596609    -0.13600
C1535       C  0.65503406  0.22247488  0.64128023     0.24400
C1536       C  0.62119908  0.20967784  0.62659136    -0.23700
C1537       C  0.59693058  0.23768479  0.61043620     0.19300
C1538       C  0.60615087  0.27744777  0.60911215     0.24400
C1539       C  0.63984754  0.29022491  0.62407815    -0.23600
C1540       C  0.66424759  0.26219727  0.63985409     0.19300
F1541       F  0.69677129  0.27340726  0.65501316    -0.13600
F1542       F  0.67938029  0.19652739  0.65734460    -0.15900
F1543       F  0.58200134  0.30354480  0.59295140    -0.15900
F1544       F  0.56450782  0.22647353  0.59497819    -0.13600
C1545       C  0.61835481  0.47067608  0.51645498     0.24400
C1546       C  0.63020768  0.43705334  0.53504069    -0.23700
C1547       C  0.64157871  0.40415882  0.52156193     0.19300
C1548       C  0.62531820  0.40157764  0.98695299     0.24400
C1549       C  0.62803236  0.43724879  0.97142202    -0.23600
C1550       C  0.62857904  0.47336710  0.98753064     0.19300
F1551       F  0.63120886  0.50852556  0.97344682    -0.13600
F1552       F  0.60745083  0.50290694  0.52909028    -0.15900
F1553       F  0.62351369  0.36632598  0.97174370    -0.15900
F1554       F  0.65449858  0.37194070  0.53959251    -0.13600
C1555       C  0.59777494  0.40313028  0.75681992     0.24400
C1556       C  0.62605193  0.39747755  0.78397764    -0.23700
C1557       C  0.65813992  0.39070358  0.78004741     0.19300
C1558       C  0.66175792  0.38855140  0.74959859     0.24400
C1559       C  0.63362814  0.39504513  0.72232088    -0.23600
C1560       C  0.60159639  0.40249643  0.72641687     0.19300
F1561       F  0.57377228  0.40849070  0.70101355    -0.13600
F1562       F  0.56628018  0.41004678  0.75964599    -0.15900
F1563       F  0.69305054  0.38012721  0.74702233    -0.15900
F1564       F  0.68584000  0.38495240  0.80562901    -0.13600
C1565       C  0.85454809  0.72344330  0.60966042     0.24400
C1566       C  0.88802170  0.71002745  0.62521149    -0.23700
C1567       C  0.91261073  0.73815971  0.64057432     0.19300
C1568       C  0.90392743  0.77844109  0.64060873     0.24400
C1569       C  0.87028976  0.79165812  0.62552167    -0.23600
C1570       C  0.84581593  0.76359046  0.60997534     0.19300
F1571       F  0.81356156  0.77508285  0.59408875    -0.13600
F1572       F  0.82999528  0.69762479  0.59390615    -0.15900
F1573       F  0.92850913  0.80451005  0.65587444    -0.15900
F1574       F  0.94481749  0.72664141  0.65659284    -0.13600
C1575       C  0.50742815  0.54188021  0.74887598     0.24400
C1576       C  0.97956063  0.51296100  0.72339963    -0.23700
C1577       C  0.00257466  0.48264346  0.72191132     0.19300
C1578       C  0.02542553  0.46785053  0.74972691     0.24400
C1579       C  0.52191686  0.48543881  0.78428003    -0.23600
C1580       C  0.52683681  0.52519783  0.77731561     0.19300
F1581       F  0.55095584  0.54789009  0.79762184    -0.13600
F1582       F  0.51359452  0.58017137  0.74277844    -0.15900
F1583       F  0.04776086  0.43895609  0.74780728    -0.15900
F1584       F  0.00392737  0.46845054  0.69359774    -0.13600
C1585       C  0.76843304  0.45504432  0.59209751     0.24400
C1586       C  0.76659348  0.43422892  0.61901925    -0.23700
C1587       C  0.79684323  0.42802482  0.64404371     0.19300
C1588       C  0.82725010  0.44709690  0.64397909     0.24400
C1589       C  0.82764316  0.47243923  0.61887317    -0.23600
C1590       C  0.79873425  0.47371003  0.59191507     0.19300
F1591       F  0.79901552  0.49579917  0.56629467    -0.13600
F1592       F  0.74001558  0.46030829  0.56711093    -0.15900
F1593       F  0.85495875  0.44441629  0.66994648    -0.15900
F1594       F  0.79595957  0.40787259  0.67036554    -0.13600
C1595       C  0.54912498  0.52449482  0.59673517     0.24400
C1596       C  0.57802181  0.52478074  0.62371639    -0.23700
C1597       C  0.57736952  0.54871622  0.64954903     0.19300
C1598       C  0.54709960  0.56830185  0.64972485     0.24400
C1599       C  0.51715177  0.56449078  0.62392706    -0.23600
C1600       C  0.51912876  0.54412055  0.59684197     0.19300
F1601       F  0.99499735  0.55307015  0.57292062    -0.13600
F1602       F  0.54921055  0.50295557  0.57083646    -0.15900
F1603       F  0.54599148  0.58691225  0.67659135    -0.15900
F1604       F  0.60475337  0.54976151  0.67590045    -0.13600
C1605       C  0.84586333  0.73484781  0.85788394     0.24400
C1606       C  0.86890858  0.70843070  0.87779574    -0.23700
C1607       C  0.90174367  0.72204770  0.89474532     0.19300
C1608       C  0.91119184  0.76145001  0.89209852     0.24400
C1609       C  0.88800860  0.78798589  0.87242321    -0.23600
C1610       C  0.85534917  0.77417476  0.85513170     0.19300
F1611       F  0.83250671  0.79894706  0.83548722    -0.13600
F1612       F  0.81467616  0.72223342  0.84002001    -0.15900
F1613       F  0.94239138  0.77403112  0.90994146    -0.15900
F1614       F  0.92466755  0.69712191  0.91414018    -0.13600
C1615       C  0.77075648  0.47404138  0.77903921     0.24400
C1616       C  0.77571294  0.51527520  0.78173338    -0.23700
C1617       C  0.76155227  0.53948321  0.75504191     0.19300
C1618       C  0.74189585  0.52318828  0.72662374     0.24400
C1619       C  0.73648294  0.48201231  0.72403049    -0.23600
C1620       C  0.75181446  0.45765852  0.75035581     0.19300
F1621       F  0.74898356  0.41756711  0.74860756    -0.13600
F1622       F  0.78408360  0.44950519  0.80401589    -0.15900
F1623       F  0.72875711  0.54772780  0.70162257    -0.15900
F1624       F  0.76672025  0.57934243  0.75604231    -0.13600
C1625       C  0.86591474  0.63729954  0.76374093     0.24400
C1626       C  0.87342306  0.60247224  0.78211745    -0.23700
C1627       C  0.87866571  0.56689157  0.76772049     0.19300
C1628       C  0.87704371  0.56637975  0.73561801     0.24400
C1629       C  0.87083490  0.60152821  0.71771925    -0.23600
C1630       C  0.86539009  0.63697428  0.73200388     0.19300
F1631       F  0.86002039  0.67137540  0.71525125    -0.13600
F1632       F  0.85955176  0.67183043  0.77670824    -0.15900
F1633       F  0.88317854  0.53197335  0.72235210    -0.15900
F1634       F  0.88439227  0.53250355  0.78447957    -0.13600
C1635       C  0.89359007  0.53136471  0.98943472     0.24400
C1636       C  0.88169854  0.56478069  0.97060029    -0.23700
C1637       C  0.87029050  0.59785271  0.98382933     0.19300
C1638       C  0.87426176  0.59925670  0.51583335     0.24400
C1639       C  0.87599176  0.56352882  0.53272554    -0.23600
C1640       C  0.87614615  0.52733785  0.51694960     0.19300
F1641       F  0.87686285  0.49213522  0.53209128    -0.13600
F1642       F  0.90503822  0.49923591  0.97714962    -0.15900
F1643       F  0.87401685  0.63469328  0.53029019    -0.15900
F1644       F  0.85792098  0.63018591  0.96570174    -0.13600
C1645       C  0.96030390  0.47548336  0.90900992     0.24400
C1646       C  0.93114132  0.47413048  0.88238458    -0.23700
C1647       C  0.93148429  0.44962756  0.85679762     0.19300
C1648       C  0.96189880  0.43081797  0.85629181     0.24400
C1649       C  0.99217858  0.43641173  0.88139381    -0.23600
C1650       C  0.99050726  0.45699188  0.90845527     0.19300
F1651       F  0.52345679  0.46576848  0.93944739    -0.13600
F1652       F  0.96030628  0.49740452  0.93474898    -0.15900
F1653       F  0.96268902  0.41135284  0.82967846    -0.15900
F1654       F  0.90364503  0.44744313  0.83090490    -0.13600
C1655       C  0.74003011  0.54347656  0.91170296     0.24400
C1656       C  0.74264467  0.56298700  0.88448854    -0.23700
C1657       C  0.71340502  0.56617500  0.85793973     0.19300
C1658       C  0.68310694  0.54674849  0.85759183     0.24400
C1659       C  0.68177201  0.52393276  0.88373821    -0.23600
C1660       C  0.70980199  0.52434106  0.91140184     0.19300
F1661       F  0.70872518  0.50365343  0.93744856    -0.13600
F1662       F  0.76775936  0.53985516  0.93759019    -0.15900
F1663       F  0.65661829  0.54637096  0.83047142    -0.15900
F1664       F  0.71548991  0.58338476  0.83081629    -0.13600
loop_ 
_geom_bond_atom_site_label_1 
_geom_bond_atom_site_label_2 
_geom_bond_distance 
_geom_bond_site_symmetry_2 
_ccdc_geom_bond_type 
O1           C16   1.260       .  A
O1           Al9   1.891       .  S
C2           O12   1.276       .  A
C2            O3   1.269       .  A
C2          C378   1.466       .  S
O3           Al5   1.915       .  S
O4            C6   1.256       .  A
O4           Al5   1.864       .  S
Al5          O13   1.925       .  S
Al5          O15   1.921       .  S
Al5          O14   1.790       .  S
C6           O19   1.260       .  A
C6          C368   1.475       .  S
O7           C17   1.257       .  A
O7           Al9   1.941       .  S
O8           C21   1.275       .  A
O8          Al18   1.909       .  S
Al9          O22   1.924       .  S
Al9          O19   1.898       .  S
Al9          O14   1.778       .  S
O10          C17   1.248       .  A
O10         Al18   1.890       .  S
O11          C20   1.250       .  A
O11         Al18   1.878       .  S
O12         Al18   1.921       .  S
O13          C20   1.263       .  A
O14         Al18   1.778       .  S
O15          C16   1.263       .  A
C16         C408   1.488       .  S
C17         C398   1.488       .  S
C20         C358   1.477       .  S
C21          O22   1.276       .  A
C21         C388   1.485       .  S
O23          C38   1.257       .  A
O23         Al31   1.874       .  S
C24          O34   1.278       .  A
C24          O25   1.272       .  A
C24         C381   1.468       .  S
O25         Al27   1.919       .  S
O26          C28   1.253       .  A
O26         Al27   1.858       .  S
Al27         O35   1.923       .  S
Al27         O37   1.919       .  S
Al27         O36   1.786       .  S
C28          O41   1.260       .  A
C28         C328   1.464       .  S
O29          C39   1.252       .  A
O29         Al31   1.923       .  S
O30          C43   1.278       .  A
O30         Al40   1.912       .  S
Al31         O44   1.929       .  S
Al31         O41   1.890       .  S
Al31         O36   1.776       .  S
O32          C39   1.249       .  A
O32         Al40   1.894       .  S
O33          C42   1.250       .  A
O33         Al40   1.888       .  S
O34         Al40   1.923       .  S
O35          C42   1.260       .  A
O36         Al40   1.774       .  S
O37          C38   1.263       .  A
C38        C1183   1.480       .  S
C39         C341   1.482       .  S
C42         C318   1.489       .  S
C43          O44   1.277       .  A
C43         C391   1.476       .  S
O45          C60   1.278       .  A
O45         Al53   1.939       .  S
C46          O56   1.268       .  A
C46          O47   1.284       .  A
C46         C311   1.486       .  S
O47         Al49   1.923       .  S
O48          C50   1.246       .  A
O48         Al49   1.886       .  S
Al49         O57   1.871       .  S
Al49         O59   1.913       .  S
Al49         O58   1.775       .  S
C50          O63   1.255       .  A
C50         C348   1.487       .  S
O51          C61   1.261       .  A
O51         Al53   1.900       .  S
O52          C65   1.260       .  A
O52         Al62   1.909       .  S
Al53         O66   1.881       .  S
Al53         O63   1.940       .  S
Al53         O58   1.773       .  S
O54          C61   1.256       .  A
O54         Al62   1.869       .  S
O55          C64   1.259       .  A
O55         Al62   1.922       .  S
O56         Al62   1.918       .  S
O57          C64   1.248       .  A
O58         Al62   1.789       .  S
O59          C60   1.277       .  A
C60         C298   1.479       .  S
C61         C371   1.478       .  S
C64         C291   1.477       .  S
C65          O66   1.259       .  A
C65         C338   1.479       .  S
O67          C82   1.276       .  A
O67         Al75   1.922       .  S
C68          O78   1.272       .  A
C68          O69   1.283       .  A
C68         C308   1.476       .  S
O69         Al71   1.923       .  S
O70          C72   1.246       .  A
O70         Al71   1.887       .  S
Al71         O79   1.875       .  S
Al71         O81   1.918       .  S
Al71         O80   1.777       .  S
C72          O85   1.254       .  A
C72         C411   1.488       .  S
O73          C83   1.259       .  A
O73         Al75   1.887       .  S
O74          C87   1.260       .  A
O74         Al84   1.902       .  S
Al75         O88   1.891       .  S
Al75         O85   1.941       .  S
Al75         O80   1.775       .  S
O76          C83   1.254       .  A
O76         Al84   1.871       .  S
O77          C86   1.255       .  A
O77         Al84   1.917       .  S
O78         Al84   1.915       .  S
O79          C86   1.244       .  A
O80         Al84   1.786       .  S
O81          C82   1.280       .  A
C82         C301   1.483       .  S
C83         C331   1.471       .  S
C86         C278   1.483       .  S
C87          O88   1.260       .  A
C87        C1233   1.476   1_455  S
O89         C104   1.279       .  A
O89         Al97   1.931       .  S
C90         O100   1.274       .  A
C90          O91   1.279       .  A
C90         C238   1.488       .  S
O91         Al93   1.912       .  S
O92          C94   1.245       .  A
O92         Al93   1.879       .  S
Al93        O101   1.887       .  S
Al93        O103   1.909       .  S
Al93        O102   1.774       .  S
C94         O107   1.254   1_565  A
C94         C261   1.490   1_565  S
O95         C105   1.264       .  A
O95         Al97   1.896       .  S
O96         C109   1.260       .  A
O96        Al106   1.905       .  S
Al97        O110   1.883       .  S
Al97        O107   1.943   1_565  S
Al97        O102   1.776       .  S
O98         C105   1.253       .  A
O98        Al106   1.865       .  S
O99         C108   1.257       .  A
O99        Al106   1.921       .  S
O100       Al106   1.924       .  S
O101        C108   1.248       .  A
O102       Al106   1.787       .  S
O103        C104   1.279       .  A
C104        C248   1.482       .  S
C105        C228   1.474       .  S
C108        C321   1.486       .  S
C109        O110   1.258       .  A
C109        C268   1.478       .  S
O111        C126   1.275       .  A
O111       Al119   1.929       .  S
C112        O122   1.269       .  A
C112        O113   1.276       .  A
C112        C241   1.469       .  S
O113       Al115   1.921       .  S
O114        C116   1.250       .  A
O114       Al115   1.898       .  S
Al115       O123   1.881       .  S
Al115       O125   1.910       .  S
Al115       O124   1.778       .  S
C116        O129   1.257       .  A
C116        C211   1.491   1_565  S
O117        C127   1.261       .  A
O117       Al119   1.898       .  S
O118        C131   1.263       .  A
O118       Al128   1.922       .  S
Al119       O132   1.885       .  S
Al119       O129   1.940       .  S
Al119       O124   1.775       .  S
O120        C127   1.257       .  A
O120       Al128   1.877       .  S
O121        C130   1.263       .  A
O121       Al128   1.926       .  S
O122       Al128   1.914       .  S
O123        C130   1.250       .  A
O124       Al128   1.790       .  S
O125        C126   1.275       .  A
C126        C251   1.482       .  S
C127        C198   1.479       .  S
C130        C361   1.479       .  S
C131        O132   1.259       .  A
C131       C1050   1.483       .  S
O133        C148   1.257       .  A
O133       Al141   1.877       .  S
C134        O144   1.281       .  A
C134        O135   1.274       .  A
C134        C188   1.475       .  S
O135       Al137   1.917       .  S
O136        C138   1.256       .  A
O136       Al137   1.871       .  S
Al137       O145   1.928       .  S
Al137       O147   1.914       .  S
Al137       O146   1.785       .  S
C138        O151   1.260       .  A
C138        C201   1.466       .  S
O139        C149   1.254   1_565  A
O139       Al141   1.933   1_565  S
O140        C153   1.277       .  A
O140       Al150   1.911       .  S
Al141       O154   1.925       .  S
Al141       O151   1.891       .  S
Al141       O146   1.774       .  S
O142        C149   1.245       .  A
O142       Al150   1.882       .  S
O143        C152   1.245       .  A
O143       Al150   1.860       .  S
O144       Al150   1.924       .  S
O145        C152   1.259       .  A
O146       Al150   1.772       .  S
O147        C148   1.262       .  A
C148       C1090   1.477   1_455  S
C149        C271   1.483   1_545  S
C152        C288   1.478       .  S
C153        O154   1.278       .  A
C153        C178   1.478       .  S
O155        C170   1.257       .  A
O155       Al163   1.880       .  S
C156        O166   1.277       .  A
C156        O157   1.273       .  A
C156        C191   1.466       .  S
O157       Al159   1.924       .  S
O158        C160   1.254       .  A
O158       Al159   1.860       .  S
Al159       O167   1.927       .  S
Al159       O169   1.928       .  S
Al159       O168   1.788       .  S
C160        O173   1.261       .  A
C160        C231   1.465       .  S
O161        C171   1.253   1_565  A
O161       Al163   1.929   1_565  S
O162        C175   1.277       .  A
O162       Al172   1.909       .  S
Al163       O176   1.926       .  S
Al163       O173   1.896       .  S
Al163       O168   1.772       .  S
O164        C171   1.247       .  A
O164       Al172   1.895       .  S
O165        C174   1.249       .  A
O165       Al172   1.878       .  S
O166       Al172   1.919       .  S
O167        C174   1.261       .  A
O168       Al172   1.779       .  S
O169        C170   1.264       .  A
C170        C208   1.488       .  S
C171        C221   1.485   1_545  S
C174        C281   1.485       .  S
C175        O176   1.278       .  A
C175        C181   1.481       .  S
C177        C178   1.409       .  A
C177        C182   1.404       .  A
C177        F184   1.358       .  S
C178        C179   1.405       .  A
C179        C180   1.392       .  A
C179        F186   1.359   1_545  S
C180        C181   1.408       .  A
C180        F185   1.358   1_545  S
C181        C182   1.409       .  A
C182        F183   1.358       .  S
C187        C188   1.405       .  A
C187        C608   1.401   1_554  A
C187        F194   1.358       .  S
C188        C189   1.410       .  A
C189        C606   1.398   1_554  A
C189        F196   1.359       .  S
C190        C191   1.405       .  A
C190        C605   1.402       .  A
C190        F195   1.358       .  S
C191        C192   1.401       .  A
C192        C603   1.398       .  A
C192        F193   1.358       .  S
C197       C1030   1.404   1_545  A
C197        C618   1.391   1_655  A
C197        F204   1.358       .  S
C198        C199   1.410       .  A
C198       C1029   1.407   1_565  A
C199        C616   1.397       .  A
C199        F206   1.359       .  S
C200        C615   1.389   1_554  A
C200       C1033   1.400   1_565  A
C200        F205   1.359       .  S
C201        C202   1.407   1_554  A
C201       C1032   1.403   1_545  A
C202        C613   1.395   1_455  A
C202        F203   1.359       .  S
C207        C208   1.412       .  A
C207        C212   1.410       .  A
C207        F214   1.357       .  S
C208        C209   1.406       .  A
C209        C210   1.399       .  A
C209        F216   1.359       .  S
C210        C211   1.410       .  A
C210        F215   1.359       .  S
C211        C212   1.407       .  A
C212        F213   1.357       .  S
C217        C218   1.404       .  A
C217        C222   1.399       .  A
C217        F224   1.358   1_455  S
C218        C963   1.481   1_455  S
C218        C219   1.411       .  A
C219        C220   1.407       .  A
C219        F226   1.358       .  S
C220        C221   1.405       .  A
C220        F225   1.358       .  S
C221        C222   1.409       .  A
C222        F223   1.358       .  S
C227        C228   1.415       .  A
C227        C648   1.395   1_554  A
C227        F234   1.358       .  S
C228        C229   1.401   1_565  A
C229        C646   1.389   1_554  A
C229        F236   1.359       .  S
C230        C231   1.408       .  A
C230        C645   1.392       .  A
C230        F235   1.359       .  S
C231        C232   1.403   1_545  A
C232        C643   1.393       .  A
C232        F233   1.358       .  S
C237        C238   1.419       .  A
C237        C658   1.404   1_554  A
C237        F244   1.358       .  S
C238        C239   1.404       .  A
C239        C656   1.394   1_554  A
C239        F246   1.358       .  S
C240        C241   1.405       .  A
C240        C655   1.400       .  A
C240        F245   1.358       .  S
C241        C242   1.407       .  A
C242        C653   1.398       .  A
C242        F243   1.358       .  S
C247        C248   1.408       .  A
C247        C252   1.402       .  A
C247        F254   1.358       .  S
C248        C249   1.408       .  A
C249        C250   1.396       .  A
C249        F256   1.359   1_565  S
C250        C251   1.408       .  A
C250        F255   1.358   1_565  S
C251        C252   1.408       .  A
C252        F253   1.358       .  S
C257        C258   1.404       .  A
C257        C262   1.396       .  A
C257        F264   1.358       .  S
C258        C980   1.487       .  S
C258        C259   1.413       .  A
C259        C260   1.413       .  A
C259        F266   1.358       .  S
C260        C261   1.408       .  A
C260        F265   1.357       .  S
C261        C262   1.409       .  A
C262        F263   1.359       .  S
C267        C268   1.402       .  A
C267        C272   1.396       .  A
C267        F274   1.359       .  S
C268        C269   1.411       .  A
C269        C270   1.406       .  A
C269        F276   1.358       .  S
C270        C271   1.405       .  A
C270        F275   1.358       .  S
C271        C272   1.411       .  A
C272        F273   1.359   1_565  S
C277        C278   1.414       .  A
C277        C282   1.401       .  A
C277        F284   1.358       .  S
C278        C279   1.403       .  A
C279        C280   1.397       .  A
C279        F286   1.358       .  S
C280        C281   1.414       .  A
C280        F285   1.358       .  S
C281        C282   1.404       .  A
C282        F283   1.358       .  S
C287        C288   1.414       .  A
C287        C292   1.396       .  A
C287        F294   1.359       .  S
C288        C289   1.402       .  A
C289        C290   1.398       .  A
C289        F296   1.358       .  S
C290        C291   1.413       .  A
C290        F295   1.359       .  S
C291        C292   1.401       .  A
C292        F293   1.358       .  S
C297        C298   1.404       .  A
C297        C718   1.398   1_554  A
C297        F304   1.358       .  S
C298        C299   1.405       .  A
C299        C716   1.404   1_554  A
C299        F306   1.358       .  S
C300        C301   1.407       .  A
C300        C715   1.403       .  A
C300        F305   1.358       .  S
C301        C302   1.411       .  A
C302        C713   1.396       .  A
C302        F303   1.358       .  S
C307        C308   1.414       .  A
C307        C312   1.399       .  A
C307        F314   1.355       .  S
C308        C309   1.395       .  A
C309        C310   1.398       .  A
C309        F316   1.359       .  S
C310        C311   1.421       .  A
C310        F315   1.355       .  S
C311        C312   1.400       .  A
C312        F313   1.360       .  S
C317        C318   1.415       .  A
C317        C322   1.399       .  A
C317        F324   1.358       .  S
C318        C319   1.406       .  A
C319        C320   1.402       .  A
C319        F326   1.358       .  S
C320        C321   1.413       .  A
C320        F325   1.358       .  S
C321        C322   1.403       .  A
C322        F323   1.358       .  S
C327        C332   1.390       .  A
C327       C1160   1.410   1_455  A
C327        F334   1.358       .  S
C328        C329   1.402       .  A
C328       C1159   1.408       .  A
C329        C330   1.392       .  A
C329        F336   1.359       .  S
C330       C1163   1.411       .  A
C330        F335   1.358       .  S
C331        C332   1.402       .  A
C331       C1162   1.411   1_455  A
C332        F333   1.358       .  S
C337        C338   1.403       .  A
C337        C342   1.394       .  A
C337        F344   1.358       .  S
C338        C339   1.412       .  A
C339        C340   1.407       .  A
C339        F346   1.358       .  S
C340        C341   1.407       .  A
C340        F345   1.358       .  S
C341        C342   1.408       .  A
C342        F343   1.358       .  S
C347        C348   1.410       .  A
C347        C352   1.398       .  A
C347        F354   1.359       .  S
C348        C349   1.406       .  A
C349        C350   1.410       .  A
C349        F356   1.358       .  S
C350        C351   1.411       .  A
C350        F355   1.358       .  S
C351        C870   1.483   1_455  S
C351        C352   1.404       .  A
C352       F1185   1.359   1_455  S
F353       C1184   1.358       .  S
C357        C358   1.404       .  A
C357        C362   1.402       .  A
C357        F364   1.358       .  S
C358        C359   1.410       .  A
C359        C360   1.400       .  A
C359        F366   1.358       .  S
C360        C361   1.404       .  A
C360        F365   1.358       .  S
C361        C362   1.411       .  A
C362        F363   1.358       .  S
C367        C368   1.405       .  A
C367        C372   1.395       .  A
C367        F374   1.358       .  S
C368        C369   1.409       .  A
C369        C370   1.392       .  A
C369        F376   1.359       .  S
C370        C371   1.406       .  A
C370        F375   1.357       .  S
C371        C372   1.412       .  A
C372        F373   1.359       .  S
C377        C378   1.404       .  A
C377        C382   1.398       .  A
C377        F384   1.358       .  S
C378        C379   1.404       .  A
C379        C380   1.401       .  A
C379        F386   1.358       .  S
C380        C381   1.405       .  A
C380        F385   1.358       .  S
C381        C382   1.406       .  A
C382        F383   1.358       .  S
C387        C388   1.411       .  A
C387        C808   1.395       .  A
C387        F394   1.359       .  S
C388        C389   1.410       .  A
C389        C806   1.402       .  A
C389        F396   1.357       .  S
C390        C391   1.405       .  A
C390        C805   1.403   1_554  A
C390        F395   1.358       .  S
C391        C392   1.404       .  A
C392        C803   1.395   1_554  A
C392        F393   1.359       .  S
C397        C398   1.411       .  A
C397        C402   1.399       .  A
C397        F404   1.358       .  S
C398        C399   1.406       .  A
C399        C400   1.409       .  A
C399        F406   1.358       .  S
C400        C401   1.413       .  A
C400        F405   1.358       .  S
C401        C919   1.484       .  S
C401        C402   1.403       .  A
C402       F1235   1.358       .  S
F403       C1234   1.359   1_455  S
C407        C408   1.405       .  A
C407        C412   1.399       .  A
C407        F414   1.358       .  S
C408        C409   1.413       .  A
C409        C410   1.410       .  A
C409        F416   1.358       .  S
C410        C411   1.406       .  A
C410        F415   1.358       .  S
C411        C412   1.409       .  A
C412        F413   1.358       .  S
O417        C432   1.256       .  A
O417       Al425   1.881       .  S
C418        O428   1.280       .  A
C418        O419   1.273       .  A
C418        C794   1.488       .  S
O419       Al421   1.923       .  S
O420        C422   1.257       .  A
O420       Al421   1.872       .  S
Al421       O429   1.922       .  S
Al421       O431   1.912       .  S
Al421       O430   1.785       .  S
C422        O435   1.261       .  A
C422        C784   1.471       .  S
O423        C433   1.252       .  A
O423       Al425   1.922       .  S
O424        C437   1.278       .  A
O424       Al434   1.916       .  S
Al425       O438   1.922       .  S
Al425       O435   1.895       .  S
Al425       O430   1.778       .  S
O426        C433   1.245       .  A
O426       Al434   1.876       .  S
O427        C436   1.248       .  A
O427       Al434   1.875       .  S
O428       Al434   1.934       .  S
O429        C436   1.259       .  A
O430       Al434   1.779       .  S
O431        C432   1.261       .  A
C432        C824   1.480       .  S
C433        C814   1.479       .  S
C436        C774   1.479       .  S
C437        O438   1.276       .  A
C437        C804   1.487       .  S
O439        C454   1.258       .  A
O439       Al447   1.884       .  S
C440        O450   1.279       .  A
C440        O441   1.274       .  A
C440        C797   1.474       .  S
O441       Al443   1.933       .  S
O442        C444   1.254       .  A
O442       Al443   1.858       .  S
Al443       O451   1.933       .  S
Al443       O453   1.928       .  S
Al443       O452   1.786       .  S
C444        O457   1.262       .  A
C444        C744   1.469       .  S
O445        C455   1.253       .  A
O445       Al447   1.930       .  S
O446        C459   1.278       .  A
O446       Al456   1.909       .  S
Al447       O460   1.932       .  S
Al447       O457   1.896       .  S
Al447       O452   1.774       .  S
O448        C455   1.245       .  A
O448       Al456   1.890       .  S
O449        C458   1.249       .  A
O449       Al456   1.879       .  S
O450       Al456   1.926       .  S
O451        C458   1.261       .  A
O452       Al456   1.775       .  S
O453        C454   1.264       .  A
C454       C1599   1.488       .  S
C455        C757   1.482       .  S
C458        C734   1.489       .  S
C459        O460   1.279       .  A
C459        C807   1.476       .  S
O461        C476   1.279       .  A
O461       Al469   1.937       .  S
C462        O472   1.272       .  A
C462        O463   1.276       .  A
C462        C727   1.463       .  S
O463       Al465   1.913       .  S
O464        C466   1.248       .  A
O464       Al465   1.895       .  S
Al465       O473   1.884       .  S
Al465       O475   1.903       .  S
Al465       O474   1.779       .  S
C466        O479   1.255       .  A
C466        C764   1.485       .  S
O467        C477   1.261       .  A
O467       Al469   1.903       .  S
O468        C481   1.262       .  A
O468       Al478   1.912       .  S
Al469       O482   1.888       .  S
Al469       O479   1.940       .  S
Al469       O474   1.776       .  S
O470        C477   1.256       .  A
O470       Al478   1.869       .  S
O471        C480   1.261       .  A
O471       Al478   1.927       .  S
O472       Al478   1.921       .  S
O473        C480   1.249       .  A
O474       Al478   1.785       .  S
O475        C476   1.275       .  A
C476        C714   1.480       .  S
C477        C787   1.474       .  S
C480        C707   1.486       .  S
C481        O482   1.259       .  A
C481        C754   1.481       .  S
O483        C498   1.280       .  A
O483       Al491   1.936       .  S
C484        O494   1.272       .  A
C484        O485   1.281       .  A
C484        C724   1.478       .  S
O485       Al487   1.923       .  S
O486        C488   1.246       .  A
O486       Al487   1.888       .  S
Al487       O495   1.872       .  S
Al487       O497   1.911       .  S
Al487       O496   1.776       .  S
C488        O501   1.255       .  A
C488        C827   1.484       .  S
O489        C499   1.261       .  A
O489       Al491   1.895       .  S
O490        C503   1.262       .  A
O490       Al500   1.918       .  S
Al491       O504   1.880       .  S
Al491       O501   1.937       .  S
Al491       O496   1.774       .  S
O492        C499   1.255       .  A
O492       Al500   1.874       .  S
O493        C502   1.261       .  A
O493       Al500   1.927       .  S
O494       Al500   1.915       .  S
O495        C502   1.246       .  A
O496       Al500   1.787       .  S
O497        C498   1.277       .  A
C498        C717   1.492       .  S
C499        C747   1.464       .  S
C502        C694   1.486       .  S
C503        O504   1.258       .  A
C503       C1649   1.481   1_455  S
O505        C520   1.280       .  A
O505       Al513   1.936       .  S
C506        O516   1.273       .  A
C506        O507   1.279       .  A
C506        C654   1.465       .  S
O507       Al509   1.920       .  S
O508        C510   1.245       .  A
O508       Al509   1.893       .  S
Al509       O517   1.878       .  S
Al509       O519   1.908       .  S
Al509       O518   1.775       .  S
C510        O523   1.253   1_565  A
C510        C677   1.481   1_565  S
O511        C521   1.260       .  A
O511       Al513   1.894       .  S
O512        C525   1.263       .  A
O512       Al522   1.917       .  S
Al513       O526   1.883       .  S
Al513       O523   1.935   1_565  S
Al513       O518   1.774       .  S
O514        C521   1.255       .  A
O514       Al522   1.868       .  S
O515        C524   1.260       .  A
O515       Al522   1.930       .  S
O516       Al522   1.920       .  S
O517        C524   1.247       .  A
O518       Al522   1.785       .  S
O519        C520   1.278       .  A
C520        C664   1.485       .  S
C521        C644   1.465       .  S
C524        C737   1.490       .  S
C525        O526   1.258       .  A
C525        C684   1.480       .  S
O527        C542   1.277       .  A
O527       Al535   1.927       .  S
C528        O538   1.275       .  A
C528        O529   1.279       .  A
C528        C657   1.476       .  S
O529       Al531   1.924       .  S
O530        C532   1.248       .  A
O530       Al531   1.895       .  S
Al531       O539   1.872       .  S
Al531       O541   1.921       .  S
Al531       O540   1.781       .  S
C532        O545   1.254   1_565  A
C532        C627   1.487   1_565  S
O533        C543   1.258       .  A
O533       Al535   1.893       .  S
O534        C547   1.263       .  A
O534       Al544   1.916       .  S
Al535       O548   1.883       .  S
Al535       O545   1.934   1_565  S
Al535       O540   1.775       .  S
O536        C543   1.250       .  A
O536       Al544   1.850       .  S
O537        C546   1.254       .  A
O537       Al544   1.911       .  S
O538       Al544   1.920       .  S
O539        C546   1.246       .  A
O540       Al544   1.787       .  S
O541        C542   1.279       .  A
C542        C667   1.484       .  S
C543        C614   1.468       .  S
C546        C777   1.481       .  S
C547        O548   1.261       .  A
C547       C1466   1.482       .  S
O549        C564   1.257       .  A
O549       Al557   1.876       .  S
C550        O560   1.279       .  A
C550        O551   1.274       .  A
C550        C604   1.474       .  S
O551       Al553   1.921       .  S
O552        C554   1.255       .  A
O552       Al553   1.872       .  S
Al553       O561   1.930       .  S
Al553       O563   1.925       .  S
Al553       O562   1.788       .  S
C554        O567   1.259       .  A
C554        C617   1.472       .  S
O555        C565   1.252       .  A
O555       Al557   1.928       .  S
O556        C569   1.279       .  A
O556       Al566   1.915       .  S
Al557       O570   1.927       .  S
Al557       O567   1.887       .  S
Al557       O562   1.774       .  S
O558        C565   1.247       .  A
O558       Al566   1.896       .  S
O559        C568   1.248       .  A
O559       Al566   1.880       .  S
O560       Al566   1.923       .  S
O561        C568   1.261       .  A
O562       Al566   1.775       .  S
O563        C564   1.264       .  A
C564       C1506   1.484   1_455  S
C565        C687   1.483   1_545  S
C568        C704   1.488       .  S
C569        O570   1.278       .  A
C569        C594   1.484       .  S
O571        C586   1.258       .  A
O571       Al579   1.881       .  S
C572        O582   1.278       .  A
C572        O573   1.273       .  A
C572        C607   1.465       .  S
O573       Al575   1.925       .  S
O574        C576   1.251       .  A
O574       Al575   1.854       .  S
Al575       O583   1.928       .  S
Al575       O585   1.926       .  S
Al575       O584   1.785       .  S
C576        O589   1.263       .  A
C576        C647   1.474       .  S
O577        C587   1.252   1_565  A
O577       Al579   1.924   1_565  S
O578        C591   1.278       .  A
O578       Al588   1.907       .  S
Al579       O592   1.938       .  S
Al579       O589   1.904       .  S
Al579       O584   1.772       .  S
O580        C587   1.246       .  A
O580       Al588   1.896       .  S
O581        C590   1.247       .  A
O581       Al588   1.874       .  S
O582       Al588   1.920       .  S
O583        C590   1.261       .  A
O584       Al588   1.777       .  S
O585        C586   1.265       .  A
C586        C624   1.486       .  S
C587        C637   1.478   1_545  S
C590        C697   1.487       .  S
C591        O592   1.281       .  A
C591        C597   1.481       .  S
C593        C594   1.409       .  A
C593        C598   1.404       .  A
C593        F600   1.358       .  S
C594        C595   1.410       .  A
C595        C596   1.395       .  A
C595        F602   1.358   1_545  S
C596        C597   1.406       .  A
C596        F601   1.358   1_545  S
C597        C598   1.408       .  A
C598        F599   1.358       .  S
C603        C604   1.408       .  A
C603        F610   1.358       .  S
C604        C605   1.406       .  A
C605        F612   1.358       .  S
C606        C607   1.400       .  A
C606        F611   1.358       .  S
C607        C608   1.406       .  A
C608        F609   1.358       .  S
C613       C1446   1.405   1_545  A
C613        F620   1.358       .  S
C614       C1445   1.401   1_565  A
C614        C615   1.412       .  A
C615        F622   1.358       .  S
C616       C1449   1.407   1_565  A
C616        F621   1.358       .  S
C617       C1448   1.404   1_545  A
C617        C618   1.409       .  A
C618        F619   1.358   1_455  S
C623        C624   1.412       .  A
C623        C628   1.409       .  A
C623        F630   1.358       .  S
C624        C625   1.406       .  A
C625        C626   1.399       .  A
C625        F632   1.358       .  S
C626        C627   1.409       .  A
C626        F631   1.359       .  S
C627        C628   1.407       .  A
C628        F629   1.358       .  S
C633        C634   1.405       .  A
C633        C638   1.401       .  A
C633        F640   1.358   1_455  S
C634       C1379   1.477   1_455  S
C634        C635   1.410       .  A
C635        C636   1.402       .  A
C635        F642   1.358       .  S
C636        C637   1.402       .  A
C636        F641   1.358       .  S
C637        C638   1.409       .  A
C638        F639   1.358       .  S
C643        C644   1.407       .  A
C643        F650   1.358       .  S
C644        C645   1.403   1_565  A
C645        F652   1.358       .  S
C646        C647   1.413       .  A
C646        F651   1.358       .  S
C647        C648   1.403   1_545  A
C648        F649   1.359       .  S
C653        C654   1.403       .  A
C653        F660   1.358       .  S
C654        C655   1.404       .  A
C655        F662   1.358       .  S
C656        C657   1.407       .  A
C656        F661   1.355       .  S
C657        C658   1.400       .  A
C658        F659   1.358       .  S
C663        C664   1.410       .  A
C663        C668   1.404       .  A
C663        F670   1.358       .  S
C664        C665   1.408       .  A
C665        C666   1.396       .  A
C665        F672   1.358   1_565  S
C666        C667   1.409       .  A
C666        F671   1.359   1_565  S
C667        C668   1.407       .  A
C668        F669   1.357       .  S
C673        C674   1.404       .  A
C673        C678   1.401       .  A
C673        F680   1.358       .  S
C674       C1396   1.479       .  S
C674        C675   1.411       .  A
C675        C676   1.405       .  A
C675        F682   1.358       .  S
C676        C677   1.404       .  A
C676        F681   1.358       .  S
C677        C678   1.409       .  A
C678        F679   1.358       .  S
C683        C684   1.404       .  A
C683        C688   1.399       .  A
C683        F690   1.358       .  S
C684        C685   1.410       .  A
C685        C686   1.406       .  A
C685        F692   1.358       .  S
C686        C687   1.405       .  A
C686        F691   1.358       .  S
C687        C688   1.409       .  A
C688        F689   1.358       .  S
C693        C694   1.417       .  A
C693        C698   1.400       .  A
C693        F700   1.358       .  S
C694        C695   1.402       .  A
C695        C696   1.398       .  A
C695        F702   1.358       .  S
C696        C697   1.416       .  A
C696        F701   1.358       .  S
C697        C698   1.403       .  A
C698        F699   1.358       .  S
C703        C704   1.415       .  A
C703        C708   1.400       .  A
C703        F710   1.358       .  S
C704        C705   1.405       .  A
C705        C706   1.403       .  A
C705        F712   1.358       .  S
C706        C707   1.414       .  A
C706        F711   1.358       .  S
C707        C708   1.403       .  A
C708        F709   1.358       .  S
C713        C714   1.405       .  A
C713        F720   1.359       .  S
C714        C715   1.409       .  A
C715        F722   1.358       .  S
C716        C717   1.412       .  A
C716        F721   1.357       .  S
C717        C718   1.413       .  A
C718        F719   1.358       .  S
C723        C724   1.405       .  A
C723        C728   1.399       .  A
C723        F730   1.358       .  S
C724        C725   1.413       .  A
C725        C726   1.398       .  A
C725        F732   1.358       .  S
C726        C727   1.398       .  A
C726        F731   1.358       .  S
C727        C728   1.404       .  A
C728        F729   1.357       .  S
C733        C734   1.416       .  A
C733        C738   1.400       .  A
C733        F740   1.359       .  S
C734        C735   1.403       .  A
C735        C736   1.401       .  A
C735        F742   1.357       .  S
C736        C737   1.416       .  A
C736        F741   1.358       .  S
C737        C738   1.403       .  A
C738        F739   1.357       .  S
C743       C1576   1.408       .  A
C743        C748   1.391   1_655  A
C743        F750   1.358       .  S
C744       C1575   1.411       .  A
C744        C745   1.402       .  A
C745        C746   1.392       .  A
C745        F752   1.358       .  S
C746       C1579   1.411       .  A
C746        F751   1.358       .  S
C747       C1578   1.405       .  A
C747        C748   1.401       .  A
C748        F749   1.358       .  S
C753        C754   1.404       .  A
C753        C758   1.400       .  A
C753        F760   1.358       .  S
C754        C755   1.411       .  A
C755        C756   1.405       .  A
C755        F762   1.358       .  S
C756        C757   1.404       .  A
C756        F761   1.358       .  S
C757        C758   1.410       .  A
C758        F759   1.359       .  S
C763        C764   1.408       .  A
C763        C768   1.400       .  A
C763        F770   1.358       .  S
C764        C765   1.406       .  A
C765        C766   1.409       .  A
C765        F772   1.358       .  S
C766        C767   1.413       .  A
C766        F771   1.358       .  S
C767       C1286   1.489   1_455  S
C767        C768   1.406       .  A
C768       F1601   1.358   1_455  S
F769       C1600   1.358       .  S
C773        C774   1.402       .  A
C773        C778   1.397       .  A
C773        F780   1.357       .  S
C774        C775   1.412       .  A
C775        C776   1.400       .  A
C775        F782   1.359       .  S
C776        C777   1.406       .  A
C776        F781   1.358       .  S
C777        C778   1.411       .  A
C778        F779   1.358       .  S
C783        C784   1.405       .  A
C783        C788   1.393       .  A
C783        F790   1.358       .  S
C784        C785   1.408       .  A
C785        C786   1.396       .  A
C785        F792   1.359       .  S
C786        C787   1.406       .  A
C786        F791   1.358       .  S
C787        C788   1.409       .  A
C788        F789   1.358       .  S
C793        C794   1.414       .  A
C793        C798   1.402       .  A
C793        F800   1.358       .  S
C794        C795   1.407       .  A
C795        C796   1.404       .  A
C795        F802   1.358       .  S
C796        C797   1.406       .  A
C796        F801   1.357       .  S
C797        C798   1.400       .  A
C798        F799   1.358       .  S
C803        C804   1.412       .  A
C803        F810   1.359       .  S
C804        C805   1.410       .  A
C805        F812   1.357       .  S
C806        C807   1.405       .  A
C806        F811   1.358       .  S
C807        C808   1.404       .  A
C808        F809   1.358       .  S
C813        C814   1.410       .  A
C813        C818   1.394       .  A
C813        F820   1.359       .  S
C814        C815   1.404       .  A
C815        C816   1.403       .  A
C815        F822   1.357       .  S
C816        C817   1.409       .  A
C816        F821   1.358       .  S
C817       C1335   1.472       .  S
C817        C818   1.403       .  A
C818       F1651   1.359       .  S
F819       C1650   1.358   1_455  S
C823        C824   1.404       .  A
C823        C828   1.399       .  A
C823        F830   1.359       .  S
C824        C825   1.410       .  A
C825        C826   1.406       .  A
C825        F832   1.358       .  S
C826        C827   1.405       .  A
C826        F831   1.357       .  S
C827        C828   1.410       .  A
C828        F829   1.358       .  S
O833        C848   1.257       .  A
O833       Al841   1.881       .  S
C834        O844   1.281       .  A
C834        O835   1.275       .  A
C834       C1210   1.470       .  S
O835       Al837   1.923       .  S
O836        C838   1.255       .  A
O836       Al837   1.860       .  S
Al837       O845   1.926       .  S
Al837       O847   1.922       .  S
Al837       O846   1.780       .  S
C838        O851   1.261       .  A
C838       C1200   1.473       .  S
O839        C849   1.252       .  A
O839       Al841   1.930       .  S
O840        C853   1.280       .  A
O840       Al850   1.907       .  S
Al841       O854   1.925       .  S
Al841       O851   1.895       .  S
Al841       O846   1.770       .  S
O842        C849   1.244       .  A
O842       Al850   1.883       .  S
O843        C852   1.244       .  A
O843       Al850   1.876       .  S
O844       Al850   1.925       .  S
O845        C852   1.261       .  A
O846       Al850   1.773       .  S
O847        C848   1.263       .  A
C848       C1240   1.482       .  S
C849       C1230   1.482       .  S
C852       C1190   1.488       .  S
C853        O854   1.280       .  A
C853       C1220   1.475       .  S
O855        C870   1.258       .  A
O855       Al863   1.885       .  S
C856        O866   1.280       .  A
C856        O857   1.275       .  A
C856       C1213   1.468       .  S
O857       Al859   1.924       .  S
O858        C860   1.256       .  A
O858       Al859   1.866       .  S
Al859       O867   1.930       .  S
Al859       O869   1.921       .  S
Al859       O868   1.782       .  S
C860        O873   1.261       .  A
C860       C1160   1.471       .  S
O861        C871   1.254       .  A
O861       Al863   1.938       .  S
O862        C875   1.281       .  A
O862       Al872   1.912       .  S
Al863       O876   1.928       .  S
Al863       O873   1.898       .  S
Al863       O868   1.771       .  S
O864        C871   1.244       .  A
O864       Al872   1.884       .  S
O865        C874   1.248       .  A
O865       Al872   1.884       .  S
O866       Al872   1.922       .  S
O867        C874   1.260       .  A
O868       Al872   1.772       .  S
O869        C870   1.263       .  A
C871       C1173   1.489       .  S
C874       C1150   1.489       .  S
C875        O876   1.281       .  A
C875       C1223   1.489       .  S
O877        C892   1.279       .  A
O877       Al885   1.925       .  S
C878        O888   1.272       .  A
C878        O879   1.283       .  A
C878       C1143   1.477       .  S
O879       Al881   1.913       .  S
O880        C882   1.249       .  A
O880       Al881   1.899       .  S
Al881       O889   1.887       .  S
Al881       O891   1.906       .  S
Al881       O890   1.778       .  S
C882        O895   1.252       .  A
C882       C1180   1.485       .  S
O883        C893   1.259       .  A
O883       Al885   1.889       .  S
O884        C897   1.263       .  A
O884       Al894   1.916       .  S
Al885       O898   1.880       .  S
Al885       O895   1.928       .  S
Al885       O890   1.774       .  S
O886        C893   1.254       .  A
O886       Al894   1.863       .  S
O887        C896   1.257       .  A
O887       Al894   1.927       .  S
O888       Al894   1.922       .  S
O889        C896   1.250       .  A
O890       Al894   1.782       .  S
O891        C892   1.276       .  A
C892       C1130   1.480       .  S
C893       C1203   1.474       .  S
C896       C1123   1.495       .  S
C897        O898   1.258       .  A
C897       C1170   1.483       .  S
O899        C914   1.275       .  A
O899       Al907   1.918       .  S
C900        O910   1.268       .  A
C900        O901   1.284       .  A
C900       C1140   1.478       .  S
O901       Al903   1.918       .  S
O902        C904   1.247       .  A
O902       Al903   1.893       .  S
Al903       O911   1.878       .  S
Al903       O913   1.914       .  S
Al903       O912   1.779       .  S
C904        O917   1.253       .  A
C904       C1243   1.488       .  S
O905        C915   1.258       .  A
O905       Al907   1.880       .  S
O906        C919   1.263       .  A
O906       Al916   1.914       .  S
Al907       O920   1.889       .  S
Al907       O917   1.937       .  S
Al907       O912   1.776       .  S
O908        C915   1.254       .  A
O908       Al916   1.866       .  S
O909        C918   1.260       .  A
O909       Al916   1.927       .  S
O910       Al916   1.913       .  S
O911        C918   1.247       .  A
O912       Al916   1.789       .  S
O913        C914   1.280       .  A
C914       C1133   1.488       .  S
C915       C1163   1.467       .  S
C918       C1110   1.487       .  S
C919        O920   1.260       .  A
O921        C936   1.273       .  A
O921       Al929   1.911       .  S
C922        O932   1.270       .  A
C922        O923   1.274       .  A
C922       C1070   1.469       .  S
O923       Al925   1.924       .  S
O924        C926   1.250       .  A
O924       Al925   1.895       .  S
Al925       O933   1.892       .  S
Al925       O935   1.905       .  S
Al925       O934   1.778       .  S
C926        O939   1.255   1_565  A
C926       C1093   1.479   1_565  S
O927        C937   1.258       .  A
O927       Al929   1.890       .  S
O928        C941   1.263       .  A
O928       Al938   1.925       .  S
Al929       O942   1.888       .  S
Al929       O939   1.923   1_565  S
Al929       O934   1.777       .  S
O930        C937   1.256       .  A
O930       Al938   1.859       .  S
O931        C940   1.264       .  A
O931       Al938   1.926       .  S
O932       Al938   1.919       .  S
O933        C940   1.254       .  A
O934       Al938   1.783       .  S
O935        C936   1.274       .  A
C936       C1080   1.478       .  S
C937       C1060   1.467       .  S
C940       C1153   1.491       .  S
C941        O942   1.258       .  A
C941       C1100   1.485       .  S
O943        C958   1.278       .  A
O943       Al951   1.920       .  S
C944        O954   1.276       .  A
C944        O945   1.279       .  A
C944       C1073   1.477       .  S
O945       Al947   1.909       .  S
O946        C948   1.246       .  A
O946       Al947   1.886       .  S
Al947       O955   1.867       .  S
Al947       O957   1.900       .  S
Al947       O956   1.775       .  S
C948        O961   1.253   1_565  A
C948       C1043   1.486   1_565  S
O949        C959   1.260       .  A
O949       Al951   1.884       .  S
O950        C963   1.263       .  A
O950       Al960   1.919       .  S
Al951       O964   1.882       .  S
Al951       O961   1.937   1_565  S
Al951       O956   1.770       .  S
O952        C959   1.255       .  A
O952       Al960   1.874       .  S
O953        C962   1.261       .  A
O953       Al960   1.933       .  S
O954       Al960   1.922       .  S
O955        C962   1.243       .  A
O956       Al960   1.783       .  S
O957        C958   1.277       .  A
C958       C1083   1.465       .  S
C959       C1030   1.472       .  S
C962       C1193   1.489       .  S
C963        O964   1.258       .  A
O965        C980   1.259       .  A
O965       Al973   1.883       .  S
C966        O976   1.279       .  A
C966        O967   1.276       .  A
C966       C1020   1.473       .  S
O967       Al969   1.925       .  S
O968        C970   1.252       .  A
O968       Al969   1.859       .  S
Al969       O977   1.918       .  S
Al969       O979   1.926       .  S
Al969       O978   1.781       .  S
C970        O983   1.261       .  A
C970       C1033   1.466       .  S
O971        C981   1.253       .  A
O971       Al973   1.934   1_565  S
O972        C985   1.279       .  A
O972       Al982   1.910       .  S
Al973       O986   1.939       .  S
Al973       O983   1.893       .  S
Al973       O978   1.769       .  S
O974        C981   1.248   1_545  A
O974       Al982   1.907       .  S
O975        C984   1.252       .  A
O975       Al982   1.903       .  S
O976       Al982   1.921       .  S
O977        C984   1.258       .  A
O978       Al982   1.778       .  S
O979        C980   1.264       .  A
C981       C1103   1.485       .  S
C984       C1120   1.495       .  S
C985        O986   1.281       .  A
C985       C1010   1.483       .  S
O987       C1002   1.258       .  A
O987       Al995   1.883       .  S
C988        O998   1.279       .  A
C988        O989   1.274       .  A
C988       C1023   1.473       .  S
O989       Al991   1.929       .  S
O990        C992   1.253       .  A
O990       Al991   1.861       .  S
Al991       O999   1.925       .  S
Al991      O1001   1.922       .  S
Al991      O1000   1.789       .  S
C992       O1005   1.261       .  A
C992       C1063   1.465       .  S
O993       C1003   1.252   1_565  A
O993       Al995   1.933   1_565  S
O994       C1007   1.280       .  A
O994      Al1004   1.912       .  S
Al995      O1008   1.937       .  S
Al995      O1005   1.893       .  S
Al995      O1000   1.773       .  S
O996       C1003   1.246       .  A
O996      Al1004   1.894       .  S
O997       C1006   1.248       .  A
O997      Al1004   1.884       .  S
O998      Al1004   1.924       .  S
O999       C1006   1.260       .  A
O1000     Al1004   1.775       .  S
O1001      C1002   1.264       .  A
C1002      C1040   1.484       .  S
C1003      C1053   1.484   1_545  S
C1006      C1113   1.486       .  S
C1007      O1008   1.280       .  A
C1007      C1013   1.486       .  S
C1009      C1010   1.408       .  A
C1009      C1014   1.403       .  A
C1009      F1016   1.358       .  S
C1010      C1011   1.407       .  A
C1011      C1012   1.398       .  A
C1011      F1018   1.359   1_545  S
C1012      C1013   1.410       .  A
C1012      F1017   1.358   1_545  S
C1013      C1014   1.408       .  A
C1014      F1015   1.358       .  S
C1019      C1020   1.406       .  A
C1019      C1440   1.396   1_554  A
C1019      F1026   1.358       .  S
C1020      C1021   1.407       .  A
C1021      C1438   1.403   1_554  A
C1021      F1028   1.357       .  S
C1022      C1437   1.401       .  A
C1022      C1023   1.403       .  A
C1022      F1027   1.358       .  S
C1023      C1024   1.406       .  A
C1024      C1435   1.403       .  A
C1024      F1025   1.358       .  S
C1029      C1450   1.394       .  A
C1029      F1036   1.358       .  S
C1030      C1031   1.411   1_655  A
C1031      C1448   1.394       .  A
C1031      F1038   1.358       .  S
C1032      C1447   1.391   1_454  A
C1032      F1037   1.358       .  S
C1033      C1034   1.412       .  A
C1034      C1445   1.393   1_554  A
C1034      F1035   1.358       .  S
C1039      C1040   1.412       .  A
C1039      C1044   1.409       .  A
C1039      F1046   1.358       .  S
C1040      C1041   1.405       .  A
C1041      C1042   1.398       .  A
C1041      F1048   1.358       .  S
C1042      C1043   1.410       .  A
C1042      F1047   1.359   1_545  S
C1043      C1044   1.406       .  A
C1044      F1045   1.357       .  S
C1049      C1050   1.404       .  A
C1049      C1054   1.399       .  A
C1049      F1056   1.358       .  S
C1050      C1051   1.412       .  A
C1051      C1052   1.408       .  A
C1051      F1058   1.358       .  S
C1052      C1053   1.406       .  A
C1052      F1057   1.358       .  S
C1053      C1054   1.408       .  A
C1054      F1055   1.358       .  S
C1059      C1060   1.408   1_556  A
C1059      C1480   1.389       .  A
C1059      F1066   1.359       .  S
C1060      C1061   1.406   1_565  A
C1061      C1478   1.391       .  A
C1061      F1068   1.358       .  S
C1062      C1477   1.393       .  A
C1062      C1063   1.409       .  A
C1062      F1067   1.359       .  S
C1063      C1064   1.401   1_545  A
C1064      C1475   1.391       .  A
C1064      F1065   1.358       .  S
C1069      C1070   1.405       .  A
C1069      C1490   1.403   1_554  A
C1069      F1076   1.358       .  S
C1070      C1071   1.403       .  A
C1071      C1488   1.398   1_554  A
C1071      F1078   1.358       .  S
C1072      C1487   1.397       .  A
C1072      C1073   1.413       .  A
C1072      F1077   1.358       .  S
C1073      C1074   1.402       .  A
C1074      C1485   1.397       .  A
C1074      F1075   1.358       .  S
C1079      C1080   1.409       .  A
C1079      C1084   1.400       .  A
C1079      F1086   1.358       .  S
C1080      C1081   1.411       .  A
C1081      C1082   1.389       .  A
C1081      F1088   1.358   1_565  S
C1082      C1083   1.401       .  A
C1082      F1087   1.359   1_565  S
C1083      C1084   1.404       .  A
C1084      F1085   1.358       .  S
C1089      C1090   1.405       .  A
C1089      C1094   1.397       .  A
C1089      F1096   1.359   1_655  S
C1090      C1091   1.409       .  A
C1091      C1092   1.404       .  A
C1091      F1098   1.357       .  S
C1092      C1093   1.405       .  A
C1092      F1097   1.357       .  S
C1093      C1094   1.408       .  A
C1094      F1095   1.359       .  S
C1099      C1100   1.406       .  A
C1099      C1104   1.402       .  A
C1099      F1106   1.358       .  S
C1100      C1101   1.411       .  A
C1101      C1102   1.407       .  A
C1101      F1108   1.358       .  S
C1102      C1103   1.406       .  A
C1102      F1107   1.357       .  S
C1103      C1104   1.408       .  A
C1104      F1105   1.358       .  S
C1109      C1110   1.414       .  A
C1109      C1114   1.402       .  A
C1109      F1116   1.358       .  S
C1110      C1111   1.404       .  A
C1111      C1112   1.402       .  A
C1111      F1118   1.358       .  S
C1112      C1113   1.413       .  A
C1112      F1117   1.358       .  S
C1113      C1114   1.404       .  A
C1114      F1115   1.358       .  S
C1119      C1120   1.416       .  A
C1119      C1124   1.404       .  A
C1119      F1126   1.359       .  S
C1120      C1121   1.405       .  A
C1121      C1122   1.399       .  A
C1121      F1128   1.357       .  S
C1122      C1123   1.415       .  A
C1122      F1127   1.359       .  S
C1123      C1124   1.407       .  A
C1124      F1125   1.357       .  S
C1129      C1130   1.407       .  A
C1129      C1550   1.392   1_554  A
C1129      F1136   1.359       .  S
C1130      C1131   1.410       .  A
C1131      C1548   1.403   1_554  A
C1131      F1138   1.357       .  S
C1132      C1547   1.403       .  A
C1132      C1133   1.410       .  A
C1132      F1137   1.358       .  S
C1133      C1134   1.416       .  A
C1134      C1545   1.394       .  A
C1134      F1135   1.358       .  S
C1139      C1140   1.419       .  A
C1139      C1144   1.398       .  A
C1139      F1146   1.356       .  S
C1140      C1141   1.397       .  A
C1141      C1142   1.396       .  A
C1141      F1148   1.360       .  S
C1142      C1143   1.416       .  A
C1142      F1147   1.354       .  S
C1143      C1144   1.397       .  A
C1144      F1145   1.360       .  S
C1149      C1150   1.415       .  A
C1149      C1154   1.402       .  A
C1149      F1156   1.358       .  S
C1150      C1151   1.403       .  A
C1151      C1152   1.400       .  A
C1151      F1158   1.357       .  S
C1152      C1153   1.416       .  A
C1152      F1157   1.358       .  S
C1153      C1154   1.405       .  A
C1154      F1155   1.358       .  S
C1159      C1164   1.388       .  A
C1159      F1166   1.358       .  S
C1160      C1161   1.404       .  A
C1161      C1162   1.395       .  A
C1161      F1168   1.358       .  S
C1162      F1167   1.358       .  S
C1163      C1164   1.403       .  A
C1164      F1165   1.358       .  S
C1169      C1170   1.404       .  A
C1169      C1174   1.397       .  A
C1169      F1176   1.359       .  S
C1170      C1171   1.411       .  A
C1171      C1172   1.408       .  A
C1171      F1178   1.358       .  S
C1172      C1173   1.407       .  A
C1172      F1177   1.357       .  S
C1173      C1174   1.411       .  A
C1174      F1175   1.359       .  S
C1179      C1180   1.408       .  A
C1179      C1184   1.397       .  A
C1179      F1186   1.358       .  S
C1180      C1181   1.407       .  A
C1181      C1182   1.408       .  A
C1181      F1188   1.358       .  S
C1182      C1183   1.411       .  A
C1182      F1187   1.358       .  S
C1183      C1184   1.404       .  A
C1189      C1190   1.400       .  A
C1189      C1194   1.398       .  A
C1189      F1196   1.359       .  S
C1190      C1191   1.420       .  A
C1191      C1192   1.399       .  A
C1191      F1198   1.357       .  S
C1192      C1193   1.400       .  A
C1192      F1197   1.358       .  S
C1193      C1194   1.420       .  A
C1194      F1195   1.358       .  S
C1199      C1200   1.404       .  A
C1199      C1204   1.391       .  A
C1199      F1206   1.358       .  S
C1200      C1201   1.412       .  A
C1201      C1202   1.391       .  A
C1201      F1208   1.359       .  S
C1202      C1203   1.405       .  A
C1202      F1207   1.358       .  S
C1203      C1204   1.411       .  A
C1204      F1205   1.358       .  S
C1209      C1210   1.405       .  A
C1209      C1214   1.396       .  A
C1209      F1216   1.358       .  S
C1210      C1211   1.406       .  A
C1211      C1212   1.403       .  A
C1211      F1218   1.358       .  S
C1212      C1213   1.407       .  A
C1212      F1217   1.358       .  S
C1213      C1214   1.402       .  A
C1214      F1215   1.358       .  S
C1219      C1220   1.405       .  A
C1219      C1640   1.391       .  A
C1219      F1226   1.359       .  S
C1220      C1221   1.407       .  A
C1221      C1638   1.402       .  A
C1221      F1228   1.358       .  S
C1222      C1637   1.403   1_554  A
C1222      C1223   1.412       .  A
C1222      F1227   1.358       .  S
C1223      C1224   1.414       .  A
C1224      C1635   1.393   1_554  A
C1224      F1225   1.358       .  S
C1229      C1230   1.411       .  A
C1229      C1234   1.397       .  A
C1229      F1236   1.359       .  S
C1230      C1231   1.404       .  A
C1231      C1232   1.404       .  A
C1231      F1238   1.357       .  S
C1232      C1233   1.410       .  A
C1232      F1237   1.358       .  S
C1233      C1234   1.402       .  A
C1239      C1240   1.404       .  A
C1239      C1244   1.399       .  A
C1239      F1246   1.358       .  S
C1240      C1241   1.411       .  A
C1241      C1242   1.410       .  A
C1241      F1248   1.358       .  S
C1242      C1243   1.407       .  A
C1242      F1247   1.358       .  S
C1243      C1244   1.409       .  A
C1244      F1245   1.358       .  S
O1249      C1264   1.257       .  A
O1249     Al1257   1.881       .  S
C1250      O1260   1.280       .  A
C1250      O1251   1.272       .  A
C1250      C1626   1.475       .  S
O1251     Al1253   1.918       .  S
O1252      C1254   1.256       .  A
O1252     Al1253   1.852       .  S
Al1253     O1261   1.920       .  S
Al1253     O1263   1.905       .  S
Al1253     O1262   1.784       .  S
C1254      O1267   1.259       .  A
C1254      C1616   1.471       .  S
O1255      C1265   1.252       .  A
O1255     Al1257   1.929       .  S
O1256      C1269   1.277       .  A
O1256     Al1266   1.907       .  S
Al1257     O1270   1.931       .  S
Al1257     O1267   1.896       .  S
Al1257     O1262   1.776       .  S
O1258      C1265   1.246       .  A
O1258     Al1266   1.886       .  S
O1259      C1268   1.248       .  A
O1259     Al1266   1.876       .  S
O1260     Al1266   1.927       .  S
O1261      C1268   1.260       .  A
O1262     Al1266   1.772       .  S
O1263      C1264   1.260       .  A
C1264      C1656   1.476       .  S
C1265      C1646   1.482       .  S
C1268      C1606   1.475       .  S
C1269      O1270   1.279       .  A
C1269      C1636   1.469       .  S
O1271      C1286   1.259       .  A
O1271     Al1279   1.888       .  S
C1272      O1282   1.272       .  A
C1272      O1273   1.268       .  A
C1272      C1629   1.467       .  S
O1273     Al1275   1.921       .  S
O1274      C1276   1.256       .  A
O1274     Al1275   1.866       .  S
Al1275     O1283   1.933       .  S
Al1275     O1285   1.930       .  S
Al1275     O1284   1.786       .  S
C1276      O1289   1.262       .  A
C1276      C1576   1.471       .  S
O1277      C1287   1.259       .  A
O1277     Al1279   1.933       .  S
O1278      C1291   1.273       .  A
O1278     Al1288   1.908       .  S
Al1279     O1292   1.917       .  S
Al1279     O1289   1.908       .  S
Al1279     O1284   1.778       .  S
O1280      C1287   1.252       .  A
O1280     Al1288   1.894       .  S
O1281      C1290   1.255       .  A
O1281     Al1288   1.896       .  S
O1282     Al1288   1.919       .  S
O1283      C1290   1.267       .  A
O1284     Al1288   1.778       .  S
O1285      C1286   1.265       .  A
C1287      C1589   1.484       .  S
C1290      C1566   1.493       .  S
C1291      O1292   1.273       .  A
C1291      C1639   1.477       .  S
O1293      C1308   1.278       .  A
O1293     Al1301   1.929       .  S
C1294      O1304   1.276       .  A
C1294      O1295   1.280       .  A
C1294      C1559   1.491       .  S
O1295     Al1297   1.923       .  S
O1296      C1298   1.247       .  A
O1296     Al1297   1.893       .  S
Al1297     O1305   1.874       .  S
Al1297     O1307   1.908       .  S
Al1297     O1306   1.775       .  S
C1298      O1311   1.255       .  A
C1298      C1596   1.491       .  S
O1299      C1309   1.258       .  A
O1299     Al1301   1.893       .  S
O1300      C1313   1.261       .  A
O1300     Al1310   1.911       .  S
Al1301     O1314   1.891       .  S
Al1301     O1311   1.940       .  S
Al1301     O1306   1.777       .  S
O1302      C1309   1.257       .  A
O1302     Al1310   1.860       .  S
O1303      C1312   1.257       .  A
O1303     Al1310   1.921       .  S
O1304     Al1310   1.926       .  S
O1305      C1312   1.246       .  A
O1306     Al1310   1.786       .  S
O1307      C1308   1.277       .  A
C1308      C1546   1.469       .  S
C1309      C1619   1.473       .  S
C1312      C1539   1.481       .  S
C1313      O1314   1.259       .  A
C1313      C1586   1.481       .  S
O1315      C1330   1.274       .  A
O1315     Al1323   1.915       .  S
C1316      O1326   1.276       .  A
C1316      O1317   1.282       .  A
C1316      C1556   1.482       .  S
O1317     Al1319   1.928       .  S
O1318      C1320   1.247       .  A
O1318     Al1319   1.890       .  S
Al1319     O1327   1.874       .  S
Al1319     O1329   1.919       .  S
Al1319     O1328   1.777       .  S
C1320      O1333   1.251       .  A
C1320      C1659   1.477       .  S
O1321      C1331   1.257       .  A
O1321     Al1323   1.884       .  S
O1322      C1335   1.261       .  A
O1322     Al1332   1.904       .  S
Al1323     O1336   1.874       .  S
Al1323     O1333   1.920       .  S
Al1323     O1328   1.777       .  S
O1324      C1331   1.253       .  A
O1324     Al1332   1.865       .  S
O1325      C1334   1.254       .  A
O1325     Al1332   1.915       .  S
O1326     Al1332   1.918       .  S
O1327      C1334   1.245       .  A
O1328     Al1332   1.783       .  S
O1329      C1330   1.281       .  A
C1330      C1549   1.479       .  S
C1331      C1579   1.471       .  S
C1334      C1526   1.482       .  S
C1335      O1336   1.258       .  A
O1337      C1352   1.276       .  A
O1337     Al1345   1.915       .  S
C1338      O1348   1.274       .  A
C1338      O1339   1.280       .  A
C1338      C1486   1.477       .  S
O1339     Al1341   1.920       .  S
O1340      C1342   1.247       .  A
O1340     Al1341   1.892       .  S
Al1341     O1349   1.881       .  S
Al1341     O1351   1.919       .  S
Al1341     O1350   1.778       .  S
C1342      O1355   1.252   1_565  A
C1342      C1509   1.488   1_565  S
O1343      C1353   1.257       .  A
O1343     Al1345   1.885       .  S
O1344      C1357   1.262       .  A
O1344     Al1354   1.910       .  S
Al1345     O1358   1.891       .  S
Al1345     O1355   1.933   1_565  S
Al1345     O1350   1.778       .  S
O1346      C1353   1.255       .  A
O1346     Al1354   1.872       .  S
O1347      C1356   1.259       .  A
O1347     Al1354   1.929       .  S
O1348     Al1354   1.911       .  S
O1349      C1356   1.245       .  A
O1350     Al1354   1.785       .  S
O1351      C1352   1.280       .  A
C1352      C1496   1.488       .  S
C1353      C1476   1.467       .  S
C1356      C1569   1.491       .  S
C1357      O1358   1.260       .  A
C1357      C1516   1.480       .  S
O1359      C1374   1.276       .  A
O1359     Al1367   1.924       .  S
C1360      O1370   1.270       .  A
C1360      O1361   1.279       .  A
C1360      C1489   1.474       .  S
O1361     Al1363   1.930       .  S
O1362      C1364   1.249       .  A
O1362     Al1363   1.893       .  S
Al1363     O1371   1.881       .  S
Al1363     O1373   1.915       .  S
Al1363     O1372   1.773       .  S
C1364      O1377   1.255       .  A
C1364      C1459   1.485   1_565  S
O1365      C1375   1.262       .  A
O1365     Al1367   1.903       .  S
O1366      C1379   1.261       .  A
O1366     Al1376   1.908       .  S
Al1367     O1380   1.884       .  S
Al1367     O1377   1.933       .  S
Al1367     O1372   1.775       .  S
O1368      C1375   1.255       .  A
O1368     Al1376   1.858       .  S
O1369      C1378   1.262       .  A
O1369     Al1376   1.924       .  S
O1370     Al1376   1.918       .  S
O1371      C1378   1.250       .  A
O1372     Al1376   1.784       .  S
O1373      C1374   1.276       .  A
C1374      C1499   1.473       .  S
C1375      C1446   1.468       .  S
C1378      C1609   1.476       .  S
C1379      O1380   1.257       .  A
O1381      C1396   1.258       .  A
O1381     Al1389   1.887       .  S
C1382      O1392   1.280       .  A
C1382      O1383   1.271       .  A
C1382      C1436   1.478       .  S
O1383     Al1385   1.919       .  S
O1384      C1386   1.257       .  A
O1384     Al1385   1.873       .  S
Al1385     O1393   1.929       .  S
Al1385     O1395   1.912       .  S
Al1385     O1394   1.788       .  S
C1386      O1399   1.261       .  A
C1386      C1449   1.477       .  S
O1387      C1397   1.256   1_565  A
O1387     Al1389   1.935   1_565  S
O1388      C1401   1.278       .  A
O1388     Al1398   1.920       .  S
Al1389     O1402   1.923       .  S
Al1389     O1399   1.899       .  S
Al1389     O1394   1.779       .  S
O1390      C1397   1.247       .  A
O1390     Al1398   1.887       .  S
O1391      C1400   1.248       .  A
O1391     Al1398   1.875       .  S
O1392     Al1398   1.934       .  S
O1393      C1400   1.262       .  A
O1394     Al1398   1.778       .  S
O1395      C1396   1.262       .  A
C1397      C1519   1.485   1_545  S
C1400      C1536   1.485       .  S
C1401      O1402   1.276       .  A
C1401      C1426   1.481       .  S
O1403      C1418   1.257       .  A
O1403     Al1411   1.873       .  S
C1404      O1414   1.277       .  A
C1404      O1405   1.274       .  A
C1404      C1439   1.467       .  S
O1405     Al1407   1.927       .  S
O1406      C1408   1.253       .  A
O1406     Al1407   1.851       .  S
Al1407     O1415   1.918       .  S
Al1407     O1417   1.921       .  S
Al1407     O1416   1.785       .  S
C1408      O1421   1.261       .  A
C1408      C1479   1.463       .  S
O1409      C1419   1.254   1_565  A
O1409     Al1411   1.937   1_565  S
O1410      C1423   1.279       .  A
O1410     Al1420   1.910       .  S
Al1411     O1424   1.933       .  S
Al1411     O1421   1.897       .  S
Al1411     O1416   1.772       .  S
O1412      C1419   1.247       .  A
O1412     Al1420   1.884       .  S
O1413      C1422   1.250       .  A
O1413     Al1420   1.887       .  S
O1414     Al1420   1.916       .  S
O1415      C1422   1.258       .  A
O1416     Al1420   1.773       .  S
O1417      C1418   1.264       .  A
C1418      C1456   1.481       .  S
C1419      C1469   1.487   1_545  S
C1422      C1529   1.481       .  S
C1423      O1424   1.279       .  A
C1423      C1429   1.485       .  S
C1425      C1426   1.407       .  A
C1425      C1430   1.404       .  A
C1425      F1432   1.357       .  S
C1426      C1427   1.407       .  A
C1427      C1428   1.395       .  A
C1427      F1434   1.359   1_545  S
C1428      C1429   1.409       .  A
C1428      F1433   1.358   1_545  S
C1429      C1430   1.410       .  A
C1430      F1431   1.358       .  S
C1435      C1436   1.405       .  A
C1435      F1442   1.358       .  S
C1436      C1437   1.410       .  A
C1437      F1444   1.358       .  S
C1438      C1439   1.406       .  A
C1438      F1443   1.359       .  S
C1439      C1440   1.401       .  A
C1440      F1441   1.358       .  S
C1445      F1452   1.359       .  S
C1446      C1447   1.408       .  A
C1447      F1454   1.359       .  S
C1448      F1453   1.359       .  S
C1449      C1450   1.408       .  A
C1450      F1451   1.359       .  S
C1455      C1456   1.411       .  A
C1455      C1460   1.408       .  A
C1455      F1462   1.358       .  S
C1456      C1457   1.405       .  A
C1457      C1458   1.397       .  A
C1457      F1464   1.359       .  S
C1458      C1459   1.410       .  A
C1458      F1463   1.359   1_545  S
C1459      C1460   1.406       .  A
C1460      F1461   1.357       .  S
C1465      C1466   1.403       .  A
C1465      C1470   1.394       .  A
C1465      F1472   1.359       .  S
C1466      C1467   1.413       .  A
C1467      C1468   1.410       .  A
C1467      F1474   1.358       .  S
C1468      C1469   1.407       .  A
C1468      F1473   1.358       .  S
C1469      C1470   1.410       .  A
C1470      F1471   1.358   1_565  S
C1475      C1476   1.408       .  A
C1475      F1482   1.358       .  S
C1476      C1477   1.404   1_565  A
C1477      F1484   1.358       .  S
C1478      C1479   1.408   1_554  A
C1478      F1483   1.359       .  S
C1479      C1480   1.402   1_545  A
C1480      F1481   1.358       .  S
C1485      C1486   1.414       .  A
C1485      F1492   1.358       .  S
C1486      C1487   1.400       .  A
C1487      F1494   1.357       .  S
C1488      C1489   1.406       .  A
C1488      F1493   1.358       .  S
C1489      C1490   1.407       .  A
C1490      F1491   1.358       .  S
C1495      C1496   1.411       .  A
C1495      C1500   1.406       .  A
C1495      F1502   1.358       .  S
C1496      C1497   1.414       .  A
C1497      C1498   1.391       .  A
C1497      F1504   1.358   1_565  S
C1498      C1499   1.401       .  A
C1498      F1503   1.359   1_565  S
C1499      C1500   1.406       .  A
C1500      F1501   1.358       .  S
C1505      C1506   1.405       .  A
C1505      C1510   1.397       .  A
C1505      F1512   1.359   1_655  S
C1506      C1507   1.411       .  A
C1507      C1508   1.410       .  A
C1507      F1514   1.358       .  S
C1508      C1509   1.408       .  A
C1508      F1513   1.357       .  S
C1509      C1510   1.408       .  A
C1510      F1511   1.358       .  S
C1515      C1516   1.403       .  A
C1515      C1520   1.399       .  A
C1515      F1522   1.359       .  S
C1516      C1517   1.411       .  A
C1517      C1518   1.406       .  A
C1517      F1524   1.357       .  S
C1518      C1519   1.404       .  A
C1518      F1523   1.357       .  S
C1519      C1520   1.411       .  A
C1520      F1521   1.359       .  S
C1525      C1526   1.411       .  A
C1525      C1530   1.400       .  A
C1525      F1532   1.359       .  S
C1526      C1527   1.405       .  A
C1527      C1528   1.399       .  A
C1527      F1534   1.358       .  S
C1528      C1529   1.411       .  A
C1528      F1533   1.358       .  S
C1529      C1530   1.405       .  A
C1530      F1531   1.358       .  S
C1535      C1536   1.415       .  A
C1535      C1540   1.399       .  A
C1535      F1542   1.358       .  S
C1536      C1537   1.403       .  A
C1537      C1538   1.400       .  A
C1537      F1544   1.357       .  S
C1538      C1539   1.413       .  A
C1538      F1543   1.358       .  S
C1539      C1540   1.402       .  A
C1540      F1541   1.358       .  S
C1545      C1546   1.399       .  A
C1545      F1552   1.359       .  S
C1546      C1547   1.405       .  A
C1547      F1554   1.358       .  S
C1548      C1549   1.406       .  A
C1548      F1553   1.358       .  S
C1549      C1550   1.409       .  A
C1550      F1551   1.358       .  S
C1555      C1556   1.412       .  A
C1555      C1560   1.400       .  A
C1555      F1562   1.358       .  S
C1556      C1557   1.400       .  A
C1557      C1558   1.401       .  A
C1557      F1564   1.358       .  S
C1558      C1559   1.416       .  A
C1558      F1563   1.355       .  S
C1559      C1560   1.404       .  A
C1560      F1561   1.357       .  S
C1565      C1566   1.416       .  A
C1565      C1570   1.402       .  A
C1565      F1572   1.358       .  S
C1566      C1567   1.405       .  A
C1567      C1568   1.405       .  A
C1567      F1574   1.358       .  S
C1568      C1569   1.415       .  A
C1568      F1573   1.358       .  S
C1569      C1570   1.403       .  A
C1570      F1571   1.358       .  S
C1575      C1580   1.391       .  A
C1575      F1582   1.358       .  S
C1576      C1577   1.408   1_655  A
C1577      C1578   1.397       .  A
C1577      F1584   1.358       .  S
C1578      F1583   1.359       .  S
C1579      C1580   1.404       .  A
C1580      F1581   1.358       .  S
C1585      C1586   1.403       .  A
C1585      C1590   1.398       .  A
C1585      F1592   1.358       .  S
C1586      C1587   1.411       .  A
C1587      C1588   1.407       .  A
C1587      F1594   1.358       .  S
C1588      C1589   1.405       .  A
C1588      F1593   1.357       .  S
C1589      C1590   1.410       .  A
C1590      F1591   1.359       .  S
C1595      C1596   1.410       .  A
C1595      C1600   1.401       .  A
C1595      F1602   1.358       .  S
C1596      C1597   1.407       .  A
C1597      C1598   1.411       .  A
C1597      F1604   1.357       .  S
C1598      C1599   1.412       .  A
C1598      F1603   1.358       .  S
C1599      C1600   1.405       .  A
C1605      C1606   1.402       .  A
C1605      C1610   1.398       .  A
C1605      F1612   1.358       .  S
C1606      C1607   1.411       .  A
C1607      C1608   1.399       .  A
C1607      F1614   1.358       .  S
C1608      C1609   1.403       .  A
C1608      F1613   1.358       .  S
C1609      C1610   1.411       .  A
C1610      F1611   1.358       .  S
C1615      C1616   1.406       .  A
C1615      C1620   1.390       .  A
C1615      F1622   1.357       .  S
C1616      C1617   1.409       .  A
C1617      C1618   1.389       .  A
C1617      F1624   1.360       .  S
C1618      C1619   1.406       .  A
C1618      F1623   1.357       .  S
C1619      C1620   1.410       .  A
C1620      F1621   1.358       .  S
C1625      C1626   1.408       .  A
C1625      C1630   1.398       .  A
C1625      F1632   1.358       .  S
C1626      C1627   1.406       .  A
C1627      C1628   1.402       .  A
C1627      F1634   1.358       .  S
C1628      C1629   1.405       .  A
C1628      F1633   1.358       .  S
C1629      C1630   1.402       .  A
C1630      F1631   1.358       .  S
C1635      C1636   1.399       .  A
C1635      F1642   1.358       .  S
C1636      C1637   1.404       .  A
C1637      F1644   1.358       .  S
C1638      C1639   1.408       .  A
C1638      F1643   1.358       .  S
C1639      C1640   1.408       .  A
C1640      F1641   1.359       .  S
C1645      C1646   1.408       .  A
C1645      C1650   1.396       .  A
C1645      F1652   1.358       .  S
C1646      C1647   1.406       .  A
C1647      C1648   1.408       .  A
C1647      F1654   1.358       .  S
C1648      C1649   1.411       .  A
C1648      F1653   1.358       .  S
C1649      C1650   1.404       .  A
C1655      C1656   1.404       .  A
C1655      C1660   1.397       .  A
C1655      F1662   1.358       .  S
C1656      C1657   1.411       .  A
C1657      C1658   1.404       .  A
C1657      F1664   1.358       .  S
C1658      C1659   1.403       .  A
C1658      F1663   1.358       .  S
C1659      C1660   1.408       .  A
C1660      F1661   1.359       .  S
