geometry optimzed in LAMMPS
_audit_creation_date              2020-12-01 
_audit_creation_method            'lammps2cif' 
_symmetry_space_group_name_H-M    'P1' 
_symmetry_Int_Tables_number       1 
_symmetry_cell_setting            triclinic 
loop_ 
_symmetry_equiv_pos_as_xyz 
  x,y,z 
_cell_length_a                    41.31435319 
_cell_length_b                    26.875389659199104 
_cell_length_c                    85.0084974376047 
_cell_angle_alpha                 90.1568702611802 
_cell_angle_beta                  89.24172790855215 
_cell_angle_gamma                 89.98841689064851 
loop_ 
_atom_site_label 
_atom_site_type_symbol 
_atom_site_fract_x 
_atom_site_fract_y 
_atom_site_fract_z 
_atom_site_charge 
O1          O  0.70617272  0.03787843  0.18262573    -0.74100
O2          O  0.79573466  0.99447530  0.18016524    -0.74100
O3          O  0.75110158  0.02798351  0.15953025    -0.74200
O4          O  0.75133700  0.00981074  0.20325858    -0.74200
O5          O  0.73407833  0.42346039  0.20143307    -0.74200
O6          O  0.73344306  0.44259083  0.15615733    -0.74100
O7          O  0.77734012  0.40953714  0.17754766    -0.74100
O8          O  0.69100162  0.95913009  0.17950613    -0.74200
Ni9        Ni  0.75177723  0.02026742  0.18147148     1.25400
Ni10       Ni  0.73336201  0.42865907  0.17862031     1.25400
C11         C  0.68375291  0.00473003  0.18157272     0.88100
C12         C  0.80049164  0.44044245  0.17897506     0.88000
C13         C  0.74149382  0.99385348  0.15030954     0.88000
C14         C  0.74152146  0.46127063  0.21001447     0.88200
O15         O  0.78178796  0.39586950  0.30619525    -0.74100
O16         O  0.69158981  0.43720257  0.30674862    -0.74100
O17         O  0.73748646  0.41969690  0.28432518    -0.74200
O18         O  0.73557131  0.40833107  0.32846360    -0.74200
O19         O  0.75203277  0.48658015  0.33120363    -0.74200
O20         O  0.75262036  0.49911298  0.28583917    -0.74100
O21         O  0.70825586  0.51574781  0.30903642    -0.74100
O22         O  0.79590422  0.47547970  0.30789445    -0.74200
Ni23       Ni  0.73593546  0.41251069  0.30636023     1.25400
Ni24       Ni  0.75255820  0.49714139  0.30860497     1.25400
C25         C  0.80377051  0.42979829  0.30710010     0.88100
C26         C  0.68544712  0.48414401  0.30768823     0.88000
C27         C  0.74606804  0.46004592  0.27768085     0.88000
C28         C  0.74488977  0.44393758  0.33720828     0.88200
O29         O  0.02421980  0.26302009  0.18482090    -0.74100
O30         O  0.93494757  0.30634919  0.18156969    -0.74100
O31         O  0.98086622  0.26888406  0.16148684    -0.74200
O32         O  0.97779456  0.29542720  0.20496663    -0.74200
O33         O  0.99467836  0.37302806  0.20119148    -0.74200
O34         O  0.99776099  0.34580661  0.15644761    -0.74100
O35         O  0.95276315  0.38308521  0.17703547    -0.74100
O36         O  0.03968179  0.34133009  0.18050687    -0.74200
Ni37       Ni  0.97875952  0.28069860  0.18333845     1.25400
Ni38       Ni  0.99667146  0.36364035  0.17859580     1.25400
C39         C  0.04658999  0.29614780  0.18337221     0.88100
C40         C  0.92933515  0.35276707  0.17898807     0.88000
C41         C  0.99059843  0.30163185  0.15171940     0.88000
C42         C  0.98636956  0.33740733  0.21048720     0.88200
O43         O  0.96282305  0.41298110  0.30429764    -0.74100
O44         O  0.05227741  0.37032872  0.30704218    -0.74100
O45         O  0.00892920  0.38175614  0.28387069    -0.74200
O46         O  0.00661277  0.40663526  0.32743232    -0.74200
O47         O  0.99155171  0.32847217  0.33243421    -0.74200
O48         O  0.99110900  0.30455898  0.28745386    -0.74100
O49         O  0.03485416  0.29294094  0.31066124    -0.74100
O50         O  0.94758922  0.33500727  0.30916075    -0.74200
Ni51       Ni  0.00833822  0.39564904  0.30555183     1.25400
Ni52       Ni  0.99080625  0.31238905  0.31012448     1.25400
C53         C  0.94044340  0.38002387  0.30612810     0.88100
C54         C  0.05814867  0.32362729  0.30886710     0.88000
C55         C  0.99957460  0.34033334  0.27824522     0.88000
C56         C  0.99829526  0.37283937  0.33711661     0.88200
O57         O  0.52333278  0.01676663  0.18500521    -0.74100
O58         O  0.43452853  0.06295899  0.18276469    -0.74100
O59         O  0.47899633  0.02475699  0.16209734    -0.74200
O60         O  0.47834738  0.04943587  0.20574126    -0.74200
O61         O  0.49726403  0.12626156  0.20202689    -0.74200
O62         O  0.49547479  0.10215744  0.15701438    -0.74100
O63         O  0.45329116  0.13973618  0.17889704    -0.74100
O64         O  0.53957306  0.09410208  0.18009998    -0.74200
Ni65       Ni  0.47804760  0.03577051  0.18401808     1.25400
Ni66       Ni  0.49688481  0.11839849  0.17931978     1.25400
C67         C  0.54618874  0.04887600  0.18312100     0.88100
C68         C  0.42960945  0.10982416  0.18063886     0.88000
C69         C  0.48788676  0.05806953  0.15235017     0.88000
C70         C  0.48884194  0.09036899  0.21122430     0.88200
O71         O  0.46558898  0.16653642  0.30485801    -0.74100
O72         O  0.55474767  0.12259866  0.30701343    -0.74100
O73         O  0.51075527  0.13459806  0.28410924    -0.74200
O74         O  0.50983675  0.15938594  0.32775547    -0.74200
O75         O  0.49343768  0.08192891  0.33285155    -0.74200
O76         O  0.49321452  0.05704092  0.28794103    -0.74100
O77         O  0.53687123  0.04555528  0.31147790    -0.74100
O78         O  0.44982819  0.08880643  0.30950585    -0.74200
Ni79       Ni  0.51094846  0.14848737  0.30582279     1.25400
Ni80       Ni  0.49287718  0.06546267  0.31062154     1.25400
C81         C  0.44293447  0.13407995  0.30661165     0.88100
C82         C  0.56017244  0.07612698  0.30953889     0.88000
C83         C  0.50109315  0.09307424  0.27869489     0.88000
C84         C  0.50083247  0.12605537  0.33748761     0.88200
O85         O  0.20559001  0.28932245  0.18222960    -0.74100
O86         O  0.29556432  0.24626759  0.18194010    -0.74100
O87         O  0.25283088  0.27862717  0.16025138    -0.74200
O88         O  0.24916435  0.26247304  0.20414219    -0.74200
O89         O  0.23422318  0.18320819  0.20166429    -0.74200
O90         O  0.23554481  0.20139517  0.15634436    -0.74100
O91         O  0.27831018  0.16880617  0.17827487    -0.74100
O92         O  0.19129113  0.20990951  0.17969126    -0.74200
Ni93       Ni  0.25142956  0.27195450  0.18225288     1.25400
Ni94       Ni  0.23440610  0.18797833  0.17885998     1.25400
C95         C  0.18360827  0.25557106  0.18079814     0.88100
C96         C  0.30144481  0.19942471  0.18020485     0.88000
C97         C  0.24388928  0.24433580  0.15091880     0.88000
C98         C  0.24079883  0.22129512  0.21029274     0.88200
O99         O  0.28276314  0.14662928  0.30483694    -0.74100
O100        O  0.19344768  0.19099903  0.30700107    -0.74100
O101        O  0.23801672  0.17536984  0.28394833    -0.74200
O102        O  0.23774180  0.15698953  0.32780650    -0.74200
O103        O  0.25475759  0.23455186  0.33168990    -0.74200
O104        O  0.25454377  0.25387381  0.28652989    -0.74100
O105        O  0.21121806  0.26837220  0.31042466    -0.74100
O106        O  0.29816543  0.22518835  0.30806115    -0.74200
Ni107      Ni  0.23727958  0.16478985  0.30579872     1.25400
Ni108      Ni  0.25512700  0.24837923  0.30929884     1.25400
C109        C  0.30529604  0.17940803  0.30621767     0.88100
C110        C  0.18785172  0.23778749  0.30900633     0.88000
C111        C  0.24702849  0.21633387  0.27786006     0.88000
C112        C  0.24735431  0.19115910  0.33703032     0.88200
O113        O  0.25237327  0.41465710  0.80214442    -0.74100
O114        O  0.16247462  0.45638425  0.80473837    -0.74100
O115        O  0.20762570  0.44642736  0.78178901    -0.74200
O116        O  0.20681144  0.41898174  0.82513816    -0.74200
O117        O  0.22334722  0.49561066  0.83071828    -0.74200
O118        O  0.22298799  0.52467692  0.78598776    -0.74100
O119        O  0.17949645  0.53318585  0.80999465    -0.74100
O120        O  0.26690019  0.49288734  0.80678207    -0.74200
Ni121      Ni  0.20664463  0.43139879  0.80333758     1.25400
Ni122      Ni  0.22359800  0.51443005  0.80860820     1.25400
C123        C  0.27454298  0.44792862  0.80377949     0.88100
C124        C  0.15655852  0.50285851  0.80724509     0.88000
C125        C  0.21556422  0.48899385  0.77653522     0.88000
C126        C  0.21612131  0.45107324  0.83514597     0.88200
O127        O  0.19912728  0.05486983  0.68464484    -0.74100
O128        O  0.29060987  0.52239593  0.68036563    -0.74100
O129        O  0.24295907  0.04671359  0.66103158    -0.74200
O130        O  0.24594828  0.53535868  0.70371753    -0.74200
O131        O  0.22896965  0.45751387  0.70034130    -0.74200
O132        O  0.23046316  0.48050247  0.65537888    -0.74100
O133        O  0.27284467  0.44524438  0.67657941    -0.74100
O134        O  0.18605846  0.48726456  0.67878717    -0.74200
Ni135      Ni  0.24476025  0.03776119  0.68299734     1.25400
Ni136      Ni  0.22910947  0.46480842  0.67762623     1.25400
C137        C  0.17677014  0.02172633  0.68344304     0.88100
C138        C  0.29614843  0.47571387  0.67790008     0.88000
C139        C  0.23405168  0.01230148  0.65173140     0.88000
C140        C  0.23682987  0.49393767  0.70941961     0.88200
O141        O  0.43532451  0.43634124  0.80346031    -0.74100
O142        O  0.52372655  0.38760975  0.80654219    -0.74100
O143        O  0.48172016  0.40545878  0.78324328    -0.74200
O144        O  0.47819308  0.42409547  0.82687807    -0.74200
O145        O  0.45875705  0.34774274  0.83050695    -0.74200
O146        O  0.46376628  0.32776019  0.78541916    -0.74100
O147        O  0.50372095  0.31151280  0.80988095    -0.74100
O148        O  0.41823041  0.35832383  0.80612552    -0.74200
Ni149      Ni  0.48046600  0.41611363  0.80497283     1.25400
Ni150      Ni  0.46054514  0.33352241  0.80813175     1.25400
C151        C  0.41215684  0.40422022  0.80401101     0.88100
C152        C  0.52794515  0.34039797  0.80833958     0.88000
C153        C  0.47304745  0.36480123  0.77691112     0.88000
C154        C  0.46725907  0.39050200  0.83597359     0.88200
O155        O  0.51820420  0.29654040  0.68205620    -0.74100
O156        O  0.42953419  0.34207311  0.67912291    -0.74100
O157        O  0.47581562  0.30901779  0.65855048    -0.74200
O158        O  0.47151921  0.32452830  0.70241798    -0.74200
O159        O  0.48962870  0.40224031  0.70062258    -0.74200
O160        O  0.49263670  0.38724654  0.65536974    -0.74100
O161        O  0.44805155  0.41976084  0.67711664    -0.74100
O162        O  0.53455366  0.37482150  0.67903644    -0.74200
Ni163      Ni  0.47304951  0.31529934  0.68055877     1.25400
Ni164      Ni  0.49173801  0.39889732  0.67790107     1.25400
C165        C  0.54104715  0.32911815  0.68125977     0.88100
C166        C  0.42453144  0.38928256  0.67824345     0.88000
C167        C  0.48583693  0.34406549  0.64971804     0.88000
C168        C  0.48041628  0.36479466  0.70894868     0.88200
O169        O  0.69922168  0.30240071  0.68427260    -0.74100
O170        O  0.78804553  0.25451330  0.68335923    -0.74100
O171        O  0.74691155  0.29517994  0.66229694    -0.74200
O172        O  0.74142780  0.26744864  0.70550888    -0.74200
O173        O  0.72299692  0.19087399  0.70090919    -0.74200
O174        O  0.72912324  0.21951207  0.65618898    -0.74100
O175        O  0.76914948  0.17893633  0.67803311    -0.74100
O176        O  0.68307689  0.22552787  0.67875049    -0.74200
Ni177      Ni  0.74460933  0.28256393  0.68402207     1.25400
Ni178      Ni  0.72563323  0.20087763  0.67825610     1.25400
C179        C  0.67637588  0.27073251  0.68172520     0.88100
C180        C  0.79292029  0.20782879  0.68069974     0.88000
C181        C  0.73827167  0.26348722  0.65203945     0.88000
C182        C  0.73072861  0.22600118  0.71050569     0.88200
O183        O  0.74812676  0.15382236  0.80233560    -0.74100
O184        O  0.66027767  0.20360328  0.80746366    -0.74100
O185        O  0.70224009  0.18943179  0.78313358    -0.74200
O186        O  0.70565955  0.16244988  0.82651408    -0.74200
O187        O  0.72442742  0.23837801  0.83153209    -0.74200
O188        O  0.72258895  0.26526896  0.78686459    -0.74100
O189        O  0.68069342  0.27899138  0.81143779    -0.74100
O190        O  0.76594570  0.23054070  0.80713423    -0.74200
Ni191      Ni  0.70321119  0.17465985  0.80474515     1.25400
Ni192      Ni  0.72385377  0.25612518  0.80943258     1.25400
C193        C  0.77154133  0.18504973  0.80395616     0.88100
C194        C  0.65626392  0.25055290  0.81005211     0.88000
C195        C  0.71328024  0.23012134  0.77766296     0.88000
C196        C  0.71677530  0.19428792  0.83615398     0.88200
O197        O  0.01648341  0.02719549  0.68296282    -0.77300
O198        O  0.92639586  0.06911549  0.68213468    -0.74100
O199        O  0.97031145  0.03300516  0.66077666    -0.74200
O200        O  0.97218968  0.05741959  0.70428600    -0.74200
O201        O  0.98734522  0.13620489  0.70041993    -0.74200
O202        O  0.98606835  0.11031438  0.65544186    -0.74100
O203        O  0.94336188  0.14636758  0.67744033    -0.74100
O204        O  0.03067116  0.10569617  0.67839396    -0.74200
Ni205      Ni  0.97068553  0.04393111  0.68264317     1.25400
Ni206      Ni  0.98735157  0.12745514  0.67770507     1.25400
C207        C  0.03850328  0.06073918  0.68111530     0.88100
C208        C  0.92041821  0.11572955  0.68003833     0.88000
C209        C  0.97823523  0.06620622  0.65082744     0.88000
C210        C  0.98041318  0.09966780  0.70964349     0.88200
O211        O  0.93115655  0.17517194  0.80253196    -0.74100
O212        O  0.02091838  0.13233566  0.80451808    -0.74100
O213        O  0.97629708  0.14377672  0.78181363    -0.74200
O214        O  0.97619302  0.16986751  0.82525492    -0.74200
O215        O  0.95916706  0.09324612  0.83061500    -0.74200
O216        O  0.96097200  0.06513580  0.78578494    -0.74100
O217        O  0.00324276  0.05591773  0.80972305    -0.74100
O218        O  0.91633452  0.09693090  0.80697085    -0.74200
Ni219      Ni  0.97682260  0.15804139  0.80340953     1.25400
Ni220      Ni  0.95943436  0.07500008  0.80846922     1.25400
C221        C  0.90886900  0.14203368  0.80429204     0.88100
C222        C  0.02653373  0.08584047  0.80711603     0.88000
C223        C  0.96826111  0.10138742  0.77650817     0.88000
C224        C  0.96696100  0.13735472  0.83519881     0.88200
O225        O  0.70248785  0.30224895  0.55506989    -0.74100
O226        O  0.79191669  0.34599275  0.55704025    -0.74100
O227        O  0.74789294  0.30633401  0.57763260    -0.74200
O228        O  0.74687743  0.33614735  0.53456363    -0.74200
O229        O  0.73057782  0.41396557  0.53930604    -0.74200
O230        O  0.73054025  0.38226493  0.58385622    -0.74100
O231        O  0.77393354  0.42203208  0.56292769    -0.74100
O232        O  0.68697116  0.37982147  0.56037896    -0.74200
Ni233      Ni  0.74800741  0.31999385  0.55594391     1.25400
Ni234      Ni  0.73005297  0.40235617  0.56187849     1.25400
C235        C  0.67995204  0.33497285  0.55697398     0.88100
C236        C  0.79730592  0.39220657  0.56015888     0.88000
C237        C  0.73845926  0.33777121  0.58792862     0.88000
C238        C  0.73768624  0.37841100  0.52967367     0.88200
O239        O  0.78712155  0.44751349  0.43506762    -0.74100
O240        O  0.69877745  0.39773683  0.43282875    -0.74100
O241        O  0.74109224  0.41996255  0.45598453    -0.74200
O242        O  0.74416044  0.43141233  0.41197824    -0.74200
O243        O  0.76315940  0.35419504  0.40928728    -0.74200
O244        O  0.75884981  0.34162129  0.45470962    -0.74100
O245        O  0.71881019  0.32110723  0.43066900    -0.74100
O246        O  0.80422770  0.36894180  0.43340786    -0.74200
Ni247      Ni  0.74202995  0.42690813  0.43401244     1.25400
Ni248      Ni  0.76189106  0.34367684  0.43192470     1.25400
C249        C  0.81016532  0.41514547  0.43485462     0.88100
C250        C  0.69458522  0.35028817  0.43149988     0.88000
C251        C  0.74972064  0.38004299  0.46270638     0.88000
C252        C  0.75451718  0.39608895  0.40329680     0.88200
O253        O  0.96848169  0.41916711  0.43269165    -0.74100
O254        O  0.05934697  0.45682298  0.43115772    -0.74100
O255        O  0.01253441  0.45225683  0.45340073    -0.74200
O256        O  0.01595771  0.41817998  0.41056656    -0.74200
O257        O  0.00193264  0.49493708  0.40363969    -0.74200
O258        O  0.99823322  0.53004056  0.44797986    -0.74100
O259        O  0.04404710  0.53353407  0.42496007    -0.74100
O260        O  0.95589190  0.49714883  0.42649091    -0.74200
Ni261      Ni  0.01464227  0.43386363  0.43212967     1.25400
Ni262      Ni  0.99964069  0.51671164  0.42549435     1.25400
C263        C  0.94721183  0.45296235  0.42979338     0.88100
C264        C  0.06635633  0.50263819  0.42822354     0.88000
C265        C  0.00465522  0.49571106  0.45801135     0.88000
C266        C  0.00915273  0.44962607  0.39997266     0.88200
O267        O  0.02360219  0.05214343  0.55356245    -0.74100
O268        O  0.92871956  0.53222065  0.55337252    -0.74100
O269        O  0.97951246  0.04020402  0.57687067    -0.74200
O270        O  0.97592374  0.54522902  0.53122485    -0.74200
O271        O  0.99261004  0.46729981  0.53456440    -0.74200
O272        O  0.98518391  0.48647661  0.57956683    -0.74100
O273        O  0.94535665  0.45393281  0.55645785    -0.74100
O274        O  0.03276802  0.49460594  0.55765329    -0.74200
Ni275      Ni  0.97833458  0.03295715  0.55480538     1.25400
Ni276      Ni  0.98940116  0.47275494  0.55721575     1.25400
C277        C  0.04661460  0.02004686  0.55462702     0.88100
C278        C  0.92264273  0.48539781  0.55472992     0.88000
C279        C  0.97729661  0.53005255  0.58467848     0.88000
C280        C  0.98592637  0.50407841  0.52550282     0.88200
O281        O  0.29071975  0.18491858  0.43395554    -0.74100
O282        O  0.20099662  0.14147534  0.43186331    -0.74100
O283        O  0.24395747  0.16004843  0.45496692    -0.74200
O284        O  0.24719815  0.17233518  0.41094493    -0.74200
O285        O  0.26328002  0.09348994  0.40811998    -0.74200
O286        O  0.26029453  0.08106053  0.45352771    -0.74100
O287        O  0.21884695  0.06360542  0.42975761    -0.74100
O288        O  0.30583975  0.10564127  0.43178531    -0.74200
Ni289      Ni  0.24507245  0.16749367  0.43299735     1.25400
Ni290      Ni  0.26263085  0.08312485  0.43072051     1.25400
C291        C  0.31308785  0.15147852  0.43315866     0.88100
C292        C  0.19544015  0.09439245  0.43050693     0.88000
C293        C  0.25187592  0.11965200  0.46162801     0.88000
C294        C  0.25589733  0.13606143  0.40224787     0.88200
O295        O  0.20698642  0.03799248  0.55467003    -0.74100
O296        O  0.29525464  0.08790409  0.55595685    -0.74100
O297        O  0.25280633  0.04597160  0.57692017    -0.74200
O298        O  0.25011059  0.07406373  0.53377284    -0.74200
O299        O  0.23146009  0.15068088  0.53835188    -0.74200
O300        O  0.23434625  0.12130591  0.58305903    -0.74100
O301        O  0.27548954  0.16302031  0.56145656    -0.74100
O302        O  0.18981958  0.11451863  0.56019446    -0.74200
Ni303      Ni  0.25206930  0.05884252  0.55520006     1.25400
Ni304      Ni  0.23222559  0.14017105  0.56100175     1.25400
C305        C  0.18369621  0.06917235  0.55702239     0.88100
C306        C  0.29960271  0.13472385  0.55858130     0.88000
C307        C  0.24353857  0.07742867  0.58721058     0.88000
C308        C  0.23963000  0.11545948  0.52877660     0.88200
O309        O  0.51983021  0.32395849  0.55176337    -0.74100
O310        O  0.43039692  0.27845034  0.55377921    -0.74100
O311        O  0.47333942  0.31854568  0.57427246    -0.74200
O312        O  0.47625091  0.28940141  0.53103637    -0.74200
O313        O  0.49422982  0.21263944  0.53560109    -0.74200
O314        O  0.48946544  0.24204509  0.58017367    -0.74100
O315        O  0.44885640  0.20213065  0.55854027    -0.74100
O316        O  0.53520844  0.24684541  0.55743763    -0.74200
Ni317      Ni  0.47423774  0.30531983  0.55254545     1.25400
Ni318      Ni  0.49241537  0.22314469  0.55815555     1.25400
C319        C  0.54234216  0.29185511  0.55435535     0.88100
C320        C  0.42535365  0.23169782  0.55619560     0.88000
C321        C  0.48139302  0.28647626  0.58444306     0.88000
C322        C  0.48608078  0.24735869  0.52602331     0.88200
O323        O  0.47368666  0.16164077  0.43443629    -0.74100
O324        O  0.56314418  0.20695456  0.43199283    -0.74100
O325        O  0.51758950  0.19734494  0.45472872    -0.74200
O326        O  0.52003369  0.16538622  0.41171451    -0.74200
O327        O  0.50293434  0.24092440  0.40524966    -0.74200
O328        O  0.50079086  0.27439413  0.44964480    -0.74100
O329        O  0.54492604  0.28216393  0.42592667    -0.74100
O330        O  0.45837695  0.23873537  0.42878959    -0.74200
Ni331      Ni  0.51932018  0.18009857  0.43336374     1.25400
Ni332      Ni  0.50127100  0.26179078  0.42715315     1.25400
C333        C  0.45114689  0.19403999  0.43227979     0.88100
C334        C  0.56847614  0.25319240  0.42884098     0.88000
C335        C  0.50863422  0.24012338  0.45945252     0.88000
C336        C  0.51146726  0.19640692  0.40130900     0.88200
O337        O  0.26086837  0.41728486  0.93217119    -0.74100
O338        O  0.17004108  0.37816974  0.93087604    -0.74100
O339        O  0.21569235  0.38672339  0.95327065    -0.74200
O340        O  0.21443156  0.41437690  0.90993016    -0.74200
O341        O  0.22880760  0.33659980  0.90403917    -0.74200
O342        O  0.23132594  0.30873357  0.94887917    -0.74100
O343        O  0.18636898  0.30060771  0.92598670    -0.74100
O344        O  0.27407163  0.33873626  0.92673321    -0.74200
Ni345      Ni  0.21467492  0.40191671  0.93171948     1.25400
Ni346      Ni  0.23055690  0.31836316  0.92619307     1.25400
C347        C  0.28242531  0.38333182  0.92959751     0.88100
C348        C  0.16364601  0.33184278  0.92838085     0.88000
C349        C  0.22429397  0.34446809  0.95848190     0.88000
C350        C  0.22153401  0.38119982  0.89975432     0.88200
O351        O  0.19964554  0.26226930  0.05351773    -0.74100
O352        O  0.28923292  0.30714378  0.05531684    -0.74100
O353        O  0.24447472  0.27113621  0.07613411    -0.74200
O354        O  0.24509293  0.29313927  0.03224337    -0.74200
O355        O  0.22739319  0.37053130  0.03571578    -0.74200
O356        O  0.22824860  0.34892281  0.08070537    -0.74100
O357        O  0.27092829  0.38412030  0.05889645    -0.74100
O358        O  0.18432013  0.34062148  0.05768126    -0.74200
Ni359      Ni  0.24530113  0.28063180  0.05413345     1.25400
Ni360      Ni  0.22722805  0.36379713  0.05838622     1.25400
C361        C  0.17718812  0.29502730  0.05572254     0.88100
C362        C  0.29454261  0.35397027  0.05754261     0.88000
C363        C  0.23598696  0.30540032  0.08570577     0.88000
C364        C  0.23593474  0.33454379  0.02653929     0.88200
O365        O  0.76047786  0.15837493  0.93270017    -0.74100
O366        O  0.67103196  0.11307147  0.93111828    -0.74100
O367        O  0.71609547  0.12377697  0.95355304    -0.74200
O368        O  0.71436396  0.15319815  0.91048499    -0.74200
O369        O  0.73146575  0.07717546  0.90418350    -0.74200
O370        O  0.73360742  0.04672153  0.94879146    -0.74100
O371        O  0.68924619  0.03710141  0.92568332    -0.74100
O372        O  0.77600837  0.08108939  0.92713112    -0.74200
Ni373      Ni  0.71483378  0.13979167  0.93213251     1.25400
Ni374      Ni  0.73307466  0.05771892  0.92620948     1.25400
C375        C  0.78311665  0.12611914  0.93014290     0.88100
C376        C  0.66563524  0.06657688  0.92841675     0.88000
C377        C  0.72542701  0.08160749  0.95847783     0.88000
C378        C  0.72305056  0.12149410  0.90013673     0.88200
O379        O  0.70119128  0.00824801  0.05266813    -0.74100
O380        O  0.79007286  0.05468610  0.05483078    -0.74100
O381        O  0.74532494  0.01838417  0.07545990    -0.74200
O382        O  0.74660030  0.03911400  0.03171294    -0.74200
O383        O  0.72823740  0.11653147  0.03487032    -0.74200
O384        O  0.72797719  0.09566298  0.07992538    -0.74100
O385        O  0.77120406  0.13144166  0.05840023    -0.74100
O386        O  0.68487284  0.08630833  0.05666042    -0.74200
Ni387      Ni  0.74653712  0.02739805  0.05352862     1.25400
Ni388      Ni  0.72759641  0.11034155  0.05759066     1.25400
C389        C  0.67835916  0.04053243  0.05452239     0.88100
C390        C  0.79502963  0.10156118  0.05701283     0.88000
C391        C  0.73587487  0.05221567  0.08496019     0.88000
C392        C  0.73667113  0.07985624  0.02592673     0.88200
O393        O  0.44242560  0.38379161  0.93432380    -0.74100
O394        O  0.53147417  0.43030048  0.93085574    -0.74100
O395        O  0.48939630  0.40995802  0.95454301    -0.74200
O396        O  0.48527259  0.39854362  0.91062200    -0.74200
O397        O  0.46587975  0.47549709  0.90852062    -0.74200
O398        O  0.47313406  0.48897556  0.95362125    -0.74100
O399        O  0.51272909  0.50740271  0.92857498    -0.74100
O400        O  0.42634111  0.46294167  0.93358725    -0.74200
Ni401      Ni  0.48787794  0.40289983  0.93261400     1.25400
Ni402      Ni  0.46906013  0.48660632  0.93099294     1.25400
C403        C  0.41976151  0.41682746  0.93469610     0.88100
C404        C  0.53658386  0.47738836  0.92926498     0.88000
C405        C  0.48142271  0.45016532  0.96145441     0.88000
C406        C  0.47331810  0.43311052  0.90234800     0.88200
O407        O  0.51827530  0.02683947  0.05577212    -0.74100
O408        O  0.43020767  0.48403020  0.05617668    -0.74100
O409        O  0.47060284  0.02067657  0.07776407    -0.74200
O410        O  0.47672823  0.49669852  0.03412502    -0.74200
O411        O  0.49353827  0.41887759  0.03789932    -0.74200
O412        O  0.48943248  0.44451315  0.08275684    -0.74100
O413        O  0.44784455  0.40725704  0.06084114    -0.74100
O414        O  0.53485322  0.45053886  0.05987724    -0.74200
Ni415      Ni  0.47303060  0.00722885  0.05602586     1.25400
Ni416      Ni  0.49181494  0.42741602  0.06056433     1.25400
C417        C  0.54105480  0.99538329  0.05844731     0.88100
C418        C  0.42468997  0.43722100  0.05810354     0.88000
C419        C  0.48147840  0.48862584  0.08739117     0.88000
C420        C  0.48683451  0.45535589  0.02870901     0.88200
O421        O  0.94231641  0.14654290  0.93287102    -0.74100
O422        O  0.03062718  0.19456753  0.92881993    -0.74100
O423        O  0.98948367  0.17399566  0.95271184    -0.74200
O424        O  0.98405583  0.16172293  0.90881043    -0.74200
O425        O  0.96578684  0.23941483  0.90655546    -0.74200
O426        O  0.97137875  0.25188354  0.95188842    -0.74100
O427        O  0.01157623  0.27173441  0.92714648    -0.74100
O428        O  0.92534714  0.22499898  0.93129779    -0.74200
Ni429      Ni  0.98737850  0.16653942  0.93080637     1.25400
Ni430      Ni  0.96799802  0.24991418  0.92914111     1.25400
C431        C  0.91922809  0.17881744  0.93288955     0.88100
C432        C  0.03549262  0.24180112  0.92769447     0.88000
C433        C  0.98101553  0.21375760  0.95972466     0.88000
C434        C  0.97299340  0.19685874  0.90044691     0.88200
O435        O  0.01794731  0.28288103  0.05390353    -0.74100
O436        O  0.92878682  0.23817328  0.05750102    -0.74100
O437        O  0.97450709  0.27231790  0.07760904    -0.74200
O438        O  0.97150183  0.25417018  0.03389832    -0.74200
O439        O  0.98691917  0.17511773  0.03599436    -0.74200
O440        O  0.99336218  0.19558188  0.08106129    -0.74100
O441        O  0.94706840  0.16126549  0.06105121    -0.74100
O442        O  0.03374504  0.20388815  0.05596865    -0.74200
Ni443      Ni  0.97252706  0.26462060  0.05567746     1.25400
Ni444      Ni  0.99081143  0.18108915  0.05866652     1.25400
C445        C  0.04048211  0.24971135  0.05408371     0.88100
C446        C  0.92346225  0.19132603  0.05948351     0.88000
C447        C  0.98539531  0.23864600  0.08659758     0.88000
C448        C  0.97802330  0.21242005  0.02758606     0.88200
C449        C  0.99609866  0.17606843  0.00213626    -0.11900
C450        C  0.97615183  0.20957135  0.01027477     0.05100
C451        C  0.95770295  0.24460014  0.00165611    -0.07200
C452        C  0.96106117  0.24687854  0.98528157    -0.08000
C453        C  0.98113313  0.21355127  0.97712239    -0.02500
C454        C  0.99857916  0.17734747  0.98573714     0.04300
N455        N  0.01946147  0.14203354  0.97812267     0.66800
H456        H  0.01052333  0.14941710  0.00853962     0.15700
H457        H  0.94665225  0.27344661  0.97884122     0.15400
N458        N  0.93461450  0.27698206  0.00924027     0.74500
O459        O  0.04972147  0.14740555  0.97898568    -0.38900
O460        O  0.00815055  0.10053715  0.97390291    -0.38900
O461        O  0.93213554  0.32172726  0.00492829    -0.39600
O462        O  0.91376606  0.25928491  0.01866309    -0.39700
C463        C  0.49229615  0.49409182  0.98626351    -0.11900
C464        C  0.48244281  0.45063578  0.97871585     0.05100
C465        C  0.47696249  0.40671835  0.98764466    -0.07200
C466        C  0.48115422  0.40776138  0.00395177    -0.08000
C467        C  0.49003974  0.45172890  0.01151713    -0.02500
C468        C  0.49686005  0.49493382  0.00249477     0.04300
N469        N  0.50920762  0.53953211  0.00959836     0.66800
H470        H  0.49780164  0.52704784  0.97940823     0.15700
H471        H  0.47543817  0.37496193  0.01083491     0.15400
N472        N  0.46558858  0.36156066  0.98052059     0.74500
O473        O  0.53201517  0.53701884  0.01930003    -0.38900
O474        O  0.51055053  0.07359220  0.00580254    -0.38900
O475        O  0.47674264  0.32010556  0.98482936    -0.39600
O476        O  0.44143082  0.36245595  0.97158419    -0.39700
C477        C  0.62082944  0.06365969  0.05066484    -0.11900
C478        C  0.64361951  0.02678803  0.05457059     0.05100
C479        C  0.63240001  0.98002768  0.05962146    -0.07200
C480        C  0.59902913  0.97134901  0.06073236    -0.08000
C481        C  0.57604580  0.00867708  0.05730018    -0.02500
C482        C  0.58741517  0.05550260  0.05212985     0.04300
N483        N  0.56579567  0.09547775  0.04851339     0.66800
H484        H  0.62902808  0.10002218  0.04684585     0.15700
H485        H  0.59165823  0.43265324  0.06191501     0.15400
N486        N  0.65481520  0.43812687  0.06208916     0.74500
O487        O  0.54831750  0.11420610  0.05928590    -0.38900
O488        O  0.56923690  0.11869866  0.03570962    -0.38900
O489        O  0.67265579  0.44236755  0.07396192    -0.39600
O490        O  0.65233852  0.39633488  0.05540434    -0.39700
C491        C  0.83156454  0.17569309  0.05777313    -0.11900
C492        C  0.82819374  0.12336943  0.05792663     0.05100
C493        C  0.85637891  0.09415570  0.05896725    -0.07200
C494        C  0.88677973  0.11723922  0.05963559    -0.08000
C495        C  0.89017804  0.16958393  0.05940191    -0.02500
C496        C  0.86194886  0.19877236  0.05847981     0.04300
N497        N  0.86352480  0.25186641  0.05821663     0.66800
H498        H  0.81041604  0.19934243  0.05696796     0.15700
H499        H  0.90793069  0.09355933  0.06032948     0.15400
N500        N  0.85468622  0.04107626  0.05959812     0.74500
O501        O  0.86447237  0.27438113  0.04521428    -0.38900
O502        O  0.85883775  0.27620048  0.07075465    -0.38900
O503        O  0.86452470  0.01541566  0.04803764    -0.39600
O504        O  0.84688186  0.01982549  0.07231348    -0.39700
C505        C  0.82745290  0.18484643  0.93758687    -0.11900
C506        C  0.81815085  0.13939169  0.93091112     0.05100
C507        C  0.84281012  0.10549744  0.92599633    -0.07200
C508        C  0.87549223  0.11776953  0.92777901    -0.08000
C509        C  0.88471040  0.16366647  0.93404246    -0.02500
C510        C  0.86027575  0.19713457  0.93938803     0.04300
N511        N  0.86829136  0.24312331  0.94705142     0.66800
H512        H  0.80910364  0.21054511  0.94184264     0.15700
H513        H  0.89380262  0.09215284  0.92340719     0.15400
N514        N  0.83535734  0.05914610  0.91853400     0.74500
O515        O  0.85244931  0.28213635  0.94414832    -0.38900
O516        O  0.88849956  0.24356802  0.95806570    -0.38900
O517        O  0.82412379  0.05887460  0.90479650    -0.39600
O518        O  0.84453930  0.01883217  0.92461546    -0.39700
C519        C  0.62871468  0.99357825  0.92481142    -0.11900
C520        C  0.63226466  0.04461986  0.92852832     0.05100
C521        C  0.60408138  0.07221659  0.93219538    -0.07200
C522        C  0.57371188  0.04872471  0.93202997    -0.08000
C523        C  0.57024673  0.99758370  0.92854472    -0.02500
C524        C  0.59831590  0.97001058  0.92464335     0.04300
N525        N  0.59720791  0.41711914  0.92815904     0.66800
H526        H  0.64979019  0.97151304  0.92169043     0.15700
H527        H  0.55263611  0.07075918  0.93519411     0.15400
N528        N  0.60565613  0.12364497  0.93656469     0.74500
O529        O  0.58670364  0.39572498  0.91601412    -0.38900
O530        O  0.61136658  0.39175679  0.93847882    -0.38900
O531        O  0.58901163  0.15523376  0.92926041    -0.39600
O532        O  0.61846491  0.13588859  0.94940703    -0.39700
C533        C  0.70564251  0.10490583  0.98500352    -0.11900
C534        C  0.72702937  0.07609559  0.97570009     0.05100
C535        C  0.75198935  0.04968269  0.98302200    -0.07200
C536        C  0.75533509  0.05295179  0.99936183    -0.08000
C537        C  0.73397276  0.08197478  0.00865403    -0.02500
C538        C  0.70867068  0.10779710  0.00133058     0.04300
N539        N  0.68499146  0.13513257  0.01027887     0.66800
H540        H  0.68618130  0.12531807  0.97952350     0.15700
H541        H  0.77483076  0.03260388  0.00483003     0.15400
N542        N  0.77511270  0.02174369  0.97399247     0.74500
O543        O  0.67858635  0.17954409  0.00666654    -0.38900
O544        O  0.66699543  0.11272518  0.02005581    -0.38900
O545        O  0.80319742  0.03888529  0.97166493    -0.39600
O546        O  0.76852208  0.97800647  0.96965545    -0.39700
C547        C  0.13145663  0.24064509  0.04736271    -0.11900
C548        C  0.14222600  0.28201847  0.05586371     0.05100
C549        C  0.11892584  0.31379924  0.06320310    -0.07200
C550        C  0.08584280  0.30471742  0.06124670    -0.08000
C551        C  0.07511275  0.26327133  0.05286778    -0.02500
C552        C  0.09823100  0.23087465  0.04574020     0.04300
N553        N  0.08843406  0.18865822  0.03652755     0.66800
H554        H  0.14894550  0.21668729  0.04149222     0.15700
H555        H  0.06836030  0.32833496  0.06727525     0.15400
N556        N  0.12827479  0.35379890  0.07343283     0.74500
O557        O  0.06550812  0.19253421  0.02693224    -0.38900
O558        O  0.10482883  0.14901194  0.03671999    -0.38900
O559        O  0.11337679  0.39479389  0.07304344    -0.39600
O560        O  0.14778915  0.34577003  0.08444968    -0.39700
C561        C  0.35447800  0.34619838  0.05326250    -0.11900
C562        C  0.32800436  0.37500282  0.05829373     0.05100
C563        C  0.33372607  0.42519933  0.06293437    -0.07200
C564        C  0.36505303  0.44519398  0.06211520    -0.08000
C565        C  0.39143047  0.41628354  0.05718954    -0.02500
C566        C  0.38589618  0.36623758  0.05248039     0.04300
N567        N  0.41156898  0.33586014  0.04617576     0.66800
H568        H  0.35062109  0.30830105  0.04933547     0.15700
H569        H  0.36893715  0.48316272  0.06598844     0.15400
N570        N  0.30829409  0.45625040  0.06902779     0.74500
O571        O  0.41386573  0.29083287  0.05020436    -0.38900
O572        O  0.42909274  0.35184345  0.03500946    -0.38900
O573        O  0.29501680  0.44592080  0.08207161    -0.39600
O574        O  0.30264361  0.49771058  0.06268605    -0.39700
C575        C  0.37346704  0.36747470  0.92520421    -0.11900
C576        C  0.38505177  0.40344078  0.93553527     0.05100
C577        C  0.36252210  0.43386449  0.94390298    -0.07200
C578        C  0.32921809  0.42855206  0.94113757    -0.08000
C579        C  0.31771583  0.39338680  0.93040530    -0.02500
C580        C  0.34040435  0.36270750  0.92217865     0.04300
N581        N  0.33040632  0.32852708  0.91014532     0.66800
H582        H  0.39104286  0.34453207  0.91826255     0.15700
H583        H  0.31185662  0.45107443  0.94795527     0.15400
N584        N  0.37310887  0.46943443  0.95543412     0.74500
O585        O  0.31089238  0.34241153  0.89972609    -0.38900
O586        O  0.34444072  0.28701362  0.90859557    -0.38900
O587        O  0.35689229  0.50851247  0.95802557    -0.39600
O588        O  0.39677246  0.45967000  0.96415540    -0.39700
C589        C  0.12564274  0.26306210  0.93435785    -0.11900
C590        C  0.13015977  0.31155534  0.92847220     0.05100
C591        C  0.10339195  0.33678504  0.92213311    -0.07200
C592        C  0.07303549  0.31285758  0.92186712    -0.08000
C593        C  0.06872515  0.26372469  0.92742905    -0.02500
C594        C  0.09560465  0.23898727  0.93382491     0.04300
N595        N  0.09278284  0.19016742  0.94037221     0.66800
H596        H  0.14586427  0.24324106  0.93939422     0.15700
H597        H  0.05272317  0.33259378  0.91690805     0.15400
N598        N  0.10670342  0.38541358  0.91533291     0.74500
O599        O  0.09092829  0.15298600  0.93132984    -0.38900
O600        O  0.09886228  0.18349832  0.95472225    -0.38900
O601        O  0.12931525  0.39428873  0.90560525    -0.39600
O602        O  0.08464584  0.41739488  0.91736636    -0.39700
C603        C  0.22207185  0.38311235  0.98510473    -0.11900
C604        C  0.22679296  0.33981127  0.97588911     0.05100
C605        C  0.23563440  0.29548132  0.98350854    -0.07200
C606        C  0.23944300  0.29540264  0.99988484    -0.08000
C607        C  0.23442078  0.33868910  0.00909216    -0.02500
C608        C  0.22622904  0.38329746  0.00141422     0.04300
N609        N  0.22305866  0.42950998  0.00977554     0.66800
H610        H  0.21602221  0.41811804  0.97958421     0.15700
H611        H  0.24563369  0.26051003  0.00544253     0.15400
N612        N  0.24031243  0.25006280  0.97494666     0.74500
O613        O  0.24683653  0.44654444  0.01725566    -0.38900
O614        O  0.19908622  0.45740973  0.00729376    -0.38900
O615        O  0.26700668  0.22739853  0.97567111    -0.39600
O616        O  0.21648120  0.22900932  0.96859832    -0.39700
C617        C  0.51716857  0.21727102  0.50295057    -0.11900
C618        C  0.48970933  0.24169552  0.50886862     0.05100
C619        C  0.46969973  0.26873106  0.49847679    -0.07200
C620        C  0.47818361  0.27160457  0.48250388    -0.08000
C621        C  0.50555942  0.24700364  0.47657672    -0.02500
C622        C  0.52562300  0.22005675  0.48697313     0.04300
N623        N  0.55498909  0.19635677  0.48157285     0.66800
H624        H  0.53316559  0.19824698  0.51095706     0.15700
H625        H  0.46212246  0.29046868  0.47449091     0.15400
N626        N  0.44017532  0.29199898  0.50383690     0.74500
O627        O  0.57330999  0.21780479  0.47170658    -0.38900
O628        O  0.56435999  0.15639893  0.48783308    -0.38900
O629        O  0.43087485  0.33222848  0.49772739    -0.39600
O630        O  0.42156681  0.26975560  0.51339340    -0.39700
C631        C  0.33561162  0.20795784  0.56352026    -0.11900
C632        C  0.33227576  0.15847714  0.55803120     0.05100
C633        C  0.35963820  0.13484744  0.55133305    -0.07200
C634        C  0.38926809  0.16016806  0.55048121    -0.08000
C635        C  0.39256551  0.20923109  0.55613522    -0.02500
C636        C  0.36529660  0.23325142  0.56261514     0.04300
N637        N  0.36773009  0.28221340  0.56908324     0.66800
H638        H  0.31509017  0.22727927  0.56873547     0.15700
H639        H  0.40999817  0.14109970  0.54534878     0.15400
N640        N  0.35770744  0.08567921  0.54499005     0.74500
O641        O  0.35800345  0.31916562  0.56133744    -0.38900
O642        O  0.37710900  0.28812792  0.58303097    -0.38900
O643        O  0.35480487  0.07956311  0.53035394    -0.39600
O644        O  0.36336981  0.04870962  0.55364797    -0.39700
C645        C  0.37018866  0.12698394  0.43837257    -0.11900
C646        C  0.34808557  0.16406152  0.43371864     0.05100
C647        C  0.36017438  0.21089201  0.42924501    -0.07200
C648        C  0.39357899  0.21941149  0.42929227    -0.08000
C649        C  0.41592007  0.18208741  0.43356658    -0.02500
C650        C  0.40373923  0.13557443  0.43853317     0.04300
N651        N  0.42468829  0.09713190  0.44411248     0.66800
H652        H  0.36130493  0.09098744  0.44218541     0.15700
H653        H  0.40201118  0.25555624  0.42540085     0.15400
N654        N  0.33922945  0.24934443  0.42372432     0.74500
O655        O  0.44188216  0.10494750  0.45603481    -0.38900
O656        O  0.42166709  0.05322730  0.43902712    -0.38900
O657        O  0.34027574  0.29212441  0.42985482    -0.39600
O658        O  0.32384309  0.24305365  0.41115042    -0.39700
C659        C  0.25104132  0.16197586  0.50420846    -0.11900
C660        C  0.23775192  0.12019660  0.51158375     0.05100
C661        C  0.22913301  0.07812762  0.50242486    -0.07200
C662        C  0.23598673  0.07757739  0.48627228    -0.08000
C663        C  0.25001937  0.11877535  0.47892172    -0.02500
C664        C  0.25747145  0.16169515  0.48796605     0.04300
N665        N  0.27287878  0.20431998  0.48097826     0.66800
H666        H  0.25845994  0.19359408  0.51123613     0.15700
H667        H  0.22890235  0.04569436  0.47927994     0.15400
N668        N  0.21293577  0.03604710  0.50936688     0.74500
O669        O  0.26459451  0.24763569  0.48517610    -0.38900
O670        O  0.29702826  0.19882200  0.47188022    -0.38900
O671        O  0.19028792  0.04258111  0.51927371    -0.39600
O672        O  0.21891126  0.99257819  0.50446085    -0.39700
C673        C  0.10489946  0.99626205  0.55222070    -0.11900
C674        C  0.08147703  0.03439258  0.55373001     0.05100
C675        C  0.09227447  0.08382878  0.55556545    -0.07200
C676        C  0.12547783  0.09335237  0.55683126    -0.08000
C677        C  0.14887405  0.05507365  0.55587134    -0.02500
C678        C  0.13817968  0.00597959  0.55328535     0.04300
N679        N  0.15291151  0.47721957  0.55352474     0.66800
H680        H  0.08966808  0.47382803  0.55269816     0.15700
H681        H  0.13291318  0.13169529  0.55834347     0.15400
N682        N  0.07018665  0.12495012  0.55619699     0.74500
O683        O  0.16836054  0.46409040  0.56553475    -0.38900
O684        O  0.15184211  0.44843988  0.54178647    -0.38900
O685        O  0.07240424  0.15672300  0.56709405    -0.39600
O686        O  0.05366573  0.13530787  0.54425685    -0.39700
C687        C  0.10410046  0.07514647  0.43497342    -0.11900
C688        C  0.10058126  0.02513266  0.43008980     0.05100
C689        C  0.12842980  0.99895551  0.42505062    -0.07200
C690        C  0.15854781  0.02316595  0.42482766    -0.08000
C691        C  0.16213514  0.07297548  0.42988019    -0.02500
C692        C  0.13433660  0.09896630  0.43496738     0.04300
N693        N  0.13638463  0.14906282  0.44052599     0.66800
H694        H  0.08310646  0.09612810  0.43893680     0.15700
H695        H  0.17948617  0.00222198  0.42079052     0.15400
N696        N  0.12528867  0.43905436  0.42765446     0.74500
O697        O  0.13097921  0.18468947  0.43128782    -0.38900
O698        O  0.14003245  0.15753180  0.45500182    -0.38900
O699        O  0.13574676  0.41584509  0.41570521    -0.39600
O700        O  0.11819382  0.41518996  0.43999288    -0.39700
C701        C  0.01669643  0.46686065  0.48491596    -0.11900
C702        C  0.00233169  0.50317112  0.47528586     0.05100
C703        C  0.98287345  0.54016984  0.48240460    -0.07200
C704        C  0.97700264  0.53850086  0.49869022    -0.08000
C705        C  0.99060372  0.50112976  0.50820308    -0.02500
C706        C  0.01078167  0.46515517  0.50109732     0.04300
N707        N  0.02561706  0.42664528  0.51007024     0.66800
H708        H  0.03206338  0.43823155  0.47979967     0.15700
H709        H  0.97500341  0.05809408  0.50662584     0.15400
N710        N  0.98057259  0.07322172  0.47632189     0.74500
O711        O  0.00946322  0.38852290  0.51381717    -0.38900
O712        O  0.05584898  0.42693250  0.51199712    -0.38900
O713        O  0.95270599  0.07913415  0.47072176    -0.39600
O714        O  0.00011424  0.10928276  0.47656497    -0.39700
C715        C  0.85595461  0.46711633  0.42575055    -0.11900
C716        C  0.84460608  0.42937538  0.43564438     0.05100
C717        C  0.86718150  0.39870933  0.44353200    -0.07200
C718        C  0.90048327  0.40580296  0.44092238    -0.08000
C719        C  0.91192415  0.44280313  0.43072076    -0.02500
C720        C  0.88920232  0.47351594  0.42288760     0.04300
N721        N  0.89923154  0.50925372  0.41126529     0.66800
H722        H  0.83879442  0.48919635  0.41921426     0.15700
H723        H  0.91759823  0.38313392  0.44727113     0.15400
N724        N  0.85674432  0.36042749  0.45427459     0.74500
O725        O  0.91852402  0.49653883  0.40033153    -0.38900
O726        O  0.88512305  0.55083631  0.41048314    -0.38900
O727        O  0.87321283  0.32116287  0.45572660    -0.39600
O728        O  0.83283514  0.36758789  0.46339796    -0.39700
C729        C  0.65918543  0.27545943  0.43446975    -0.11900
C730        C  0.66195471  0.32668519  0.43099444     0.05100
C731        C  0.63402008  0.35260081  0.42656244    -0.07200
C732        C  0.60439934  0.32741711  0.42561268    -0.08000
C733        C  0.60151985  0.27600182  0.42896486    -0.02500
C734        C  0.62962178  0.24992315  0.43337596     0.04300
N735        N  0.62887403  0.19771960  0.43671889     0.66800
H736        H  0.68035590  0.25455492  0.43791973     0.15700
H737        H  0.58341930  0.34879977  0.42219685     0.15400
N738        N  0.63535379  0.40417890  0.42258393     0.74500
O739        O  0.62258099  0.16714814  0.42588288    -0.38900
O740        O  0.64022829  0.18184843  0.44947291    -0.38900
O741        O  0.64342214  0.41709298  0.40882122    -0.39600
O742        O  0.62491182  0.43636245  0.43222113    -0.39700
C743        C  0.62259254  0.36232479  0.55406791    -0.11900
C744        C  0.64507776  0.32285207  0.55511308     0.05100
C745        C  0.63340340  0.27372934  0.55487424    -0.07200
C746        C  0.60004950  0.26511333  0.55438775    -0.08000
C747        C  0.57742307  0.30454493  0.55398409    -0.02500
C748        C  0.58914312  0.35371255  0.55357886     0.04300
N749        N  0.56761100  0.39536809  0.55322576     0.66800
H750        H  0.63089499  0.40056416  0.55398912     0.15700
H751        H  0.59192687  0.22678870  0.55439382     0.15400
N752        N  0.65487625  0.23207528  0.55547498     0.74500
O753        O  0.55150680  0.40706279  0.56540442    -0.38900
O754        O  0.56834341  0.42462662  0.54164080    -0.38900
O755        O  0.65566233  0.20549623  0.56767719    -0.39600
O756        O  0.66918794  0.21748157  0.54309138    -0.39700
C757        C  0.86738892  0.48153883  0.56630864    -0.11900
C758        C  0.88933367  0.46546781  0.55471007     0.05100
C759        C  0.88178358  0.42306475  0.54554130    -0.07200
C760        C  0.85254926  0.39755967  0.54824067    -0.08000
C761        C  0.83044199  0.41362954  0.55982913    -0.02500
C762        C  0.83835211  0.45566201  0.56921091     0.04300
N763        N  0.81800018  0.47104815  0.58220113     0.66800
H764        H  0.87388995  0.51242212  0.57385410     0.15700
H765        H  0.84639725  0.36638520  0.54073980     0.15400
N766        N  0.90331526  0.40618853  0.53322813     0.74500
O767        O  0.80523960  0.43895442  0.59115806    -0.38900
O768        O  0.81613672  0.51644926  0.58596557    -0.38900
O769        O  0.90728246  0.36021874  0.53079389    -0.39600
O770        O  0.91642950  0.43705980  0.52396480    -0.39700
C771        C  0.75104973  0.42334376  0.50505177    -0.11900
C772        C  0.73565543  0.38349206  0.51253089     0.05100
C773        C  0.72450626  0.34264136  0.50348547    -0.07200
C774        C  0.73153756  0.34057562  0.48736273    -0.08000
C775        C  0.74785573  0.37959300  0.47994796    -0.02500
C776        C  0.75712602  0.42186377  0.48881675     0.04300
N777        N  0.77372403  0.46277725  0.48157066     0.66800
H778        H  0.76007942  0.45425697  0.51193570     0.15700
H779        H  0.72271783  0.30963967  0.48042302     0.15400
N780        N  0.70537968  0.30367816  0.51050785     0.74500
O781        O  0.76257478  0.50631211  0.48295886    -0.38900
O782        O  0.80112773  0.45622659  0.47516981    -0.38900
O783        O  0.68339247  0.31428173  0.52040911    -0.39600
O784        O  0.70764691  0.25956905  0.50546375    -0.39700
C785        C  0.95676928  0.13728532  0.87984539    -0.11900
C786        C  0.96786914  0.18525932  0.88370911     0.05100
C787        C  0.97682458  0.21796623  0.87161267    -0.07200
C788        C  0.97591167  0.20161954  0.85597406    -0.08000
C789        C  0.96566205  0.15293788  0.85201801    -0.02500
C790        C  0.95516474  0.12111944  0.86420978     0.04300
N791        N  0.94293854  0.07239876  0.86101683     0.66800
H792        H  0.94937533  0.11189749  0.88911023     0.15700
H793        H  0.98392012  0.22724632  0.84691283     0.15400
N794        N  0.98907000  0.26645711  0.87506260     0.74500
O795        O  0.95755196  0.03469209  0.86616918    -0.38900
O796        O  0.91516114  0.06742292  0.85521079    -0.38900
O797        O  0.01918032  0.27431998  0.87469892    -0.39600
O798        O  0.96976012  0.30237874  0.87703927    -0.39700
C799        C  0.99914038  0.07833959  0.62345462    -0.11900
C800        C  0.97972342  0.05115516  0.63398001     0.05100
C801        C  0.96521847  0.00617036  0.62866498    -0.07200
C802        C  0.97100859  0.98928484  0.61327129    -0.08000
C803        C  0.98993560  0.01696155  0.60278560    -0.02500
C804        C  0.00452890  0.06169488  0.60797287     0.04300
N805        N  0.02545053  0.08995545  0.59773317     0.66800
H806        H  0.01112762  0.11186081  0.62742903     0.15700
H807        H  0.01270162  0.48676861  0.60700372     0.15400
N808        N  0.94324001  0.97832711  0.63842923     0.74500
O809        O  0.02603146  0.13684613  0.59862905    -0.38900
O810        O  0.04589871  0.06800428  0.58900564    -0.38900
O811        O  0.91826845  0.99909397  0.64410070    -0.39600
O812        O  0.04348890  0.53044257  0.64585194    -0.39700
C813        C  0.95955096  0.13745973  0.73412165    -0.11900
C814        C  0.98092486  0.10413812  0.72682912     0.05100
C815        C  0.99627326  0.06693947  0.73587576    -0.07200
C816        C  0.98938504  0.06343592  0.75203105    -0.08000
C817        C  0.96796921  0.09674455  0.75931835    -0.02500
C818        C  0.95262703  0.13391854  0.75025724     0.04300
N819        N  0.92936758  0.16740539  0.75724802     0.66800
H820        H  0.94669205  0.16433830  0.72705620     0.15700
H821        H  0.00223477  0.03656885  0.75910090     0.15400
N822        N  0.01947693  0.03341834  0.72885200     0.74500
O823        O  0.92664015  0.21128165  0.75216239    -0.38900
O824        O  0.90912775  0.15164643  0.76730747    -0.38900
O825        O  0.03945471  0.04899979  0.71863862    -0.39600
O826        O  0.02230817  0.98960606  0.73397729    -0.39700
C827        C  0.72470131  0.12588071  0.85531745    -0.11900
C828        C  0.72130467  0.17741739  0.85256956     0.05100
C829        C  0.72055204  0.21005252  0.86551007    -0.07200
C830        C  0.72129538  0.19058793  0.88075025    -0.08000
C831        C  0.72342231  0.13884503  0.88355050    -0.02500
C832        C  0.72576763  0.10640620  0.87056904     0.04300
N833        N  0.72801628  0.05367551  0.87256659     0.66800
H834        H  0.72572511  0.10005342  0.84551516     0.15700
H835        H  0.72028230  0.21663954  0.89049391     0.15400
N836        N  0.71803378  0.26275550  0.86348563     0.74500
O837        O  0.70403979  0.02969601  0.87791497    -0.38900
O838        O  0.75200377  0.03034803  0.86689873    -0.38900
O839        O  0.69403336  0.28579487  0.86925917    -0.39600
O840        O  0.74231125  0.28706668  0.85864529    -0.39700
C841        C  0.82824693  0.20756455  0.79759836    -0.11900
C842        C  0.80600880  0.17069962  0.80244956     0.05100
C843        C  0.81778076  0.12397839  0.80712419    -0.07200
C844        C  0.85128046  0.11589151  0.80728952    -0.08000
C845        C  0.87372054  0.15372825  0.80329908    -0.02500
C846        C  0.86172885  0.19993380  0.79814554     0.04300
N847        N  0.88284165  0.23978402  0.79360546     0.66800
H848        H  0.81955990  0.24364129  0.79384441     0.15700
H849        H  0.85971989  0.07991663  0.81123250     0.15400
N850        N  0.79650663  0.08545342  0.81267110     0.74500
O851        O  0.87995726  0.25933720  0.78021314    -0.38900
O852        O  0.89886276  0.26228907  0.80397102    -0.38900
O853        O  0.80076183  0.04117215  0.80810214    -0.39600
O854        O  0.77732868  0.09389470  0.82404891    -0.39700
C855        C  0.73617244  0.33250161  0.63273323    -0.11900
C856        C  0.73802596  0.28073189  0.63545362     0.05100
C857        C  0.73899949  0.24822194  0.62243469    -0.07200
C858        C  0.73786075  0.26812854  0.60720773    -0.08000
C859        C  0.73660111  0.31999986  0.60448427    -0.02500
C860        C  0.73530255  0.35229523  0.61752833     0.04300
N861        N  0.73356367  0.40514354  0.61566492     0.66800
H862        H  0.73490970  0.35826770  0.64255064     0.15700
H863        H  0.73893552  0.24246350  0.59736587     0.15400
N864        N  0.74277722  0.19546604  0.62431498     0.74500
O865        O  0.70762013  0.42475229  0.61104273    -0.38900
O866        O  0.75517395  0.43240607  0.62153455    -0.38900
O867        O  0.72710290  0.16587345  0.61573139    -0.39600
O868        O  0.76542570  0.17864260  0.63259388    -0.39700
C869        C  0.82971177  0.13560377  0.67531824    -0.11900
C870        C  0.82589297  0.18508828  0.68073116     0.05100
C871        C  0.85333008  0.21027867  0.68635277    -0.07200
C872        C  0.88347090  0.18628603  0.68630928    -0.08000
C873        C  0.88719178  0.13686086  0.68093513    -0.02500
C874        C  0.85980267  0.11137072  0.67549641     0.04300
N875        N  0.86232079  0.06188785  0.66939047     0.66800
H876        H  0.80915370  0.11520445  0.67085311     0.15700
H877        H  0.90422641  0.20661073  0.69061611     0.15400
N878        N  0.85105514  0.25987482  0.69236692     0.74500
O879        O  0.86404109  0.02561176  0.67873537    -0.38900
O880        O  0.85709648  0.05390773  0.65501109    -0.38900
O881        O  0.84270951  0.26711664  0.70652265    -0.39600
O882        O  0.86071981  0.29595018  0.68408038    -0.39700
C883        C  0.75028280  0.24472431  0.73710711    -0.11900
C884        C  0.72678650  0.22184942  0.72769523     0.05100
C885        C  0.69817706  0.20372390  0.73480938    -0.07200
C886        C  0.69372830  0.20892535  0.75110421    -0.08000
C887        C  0.71678876  0.23329508  0.76043142    -0.02500
C888        C  0.74549526  0.25100355  0.75330158     0.04300
N889        N  0.77068630  0.27316400  0.76237243     0.66800
H890        H  0.77232764  0.25904411  0.73173841     0.15700
H891        H  0.67179222  0.19443760  0.75652677     0.15400
N892        N  0.67260435  0.18311502  0.72563261     0.74500
O893        O  0.79886041  0.25502281  0.76179617    -0.38900
O894        O  0.76634012  0.31542642  0.76855368    -0.38900
O895        O  0.65919218  0.14302211  0.72984387    -0.39600
O896        O  0.65975735  0.20907782  0.71506448    -0.39700
C897        C  0.47695413  0.36562209  0.62183331    -0.11900
C898        C  0.48921462  0.33248044  0.63285131     0.05100
C899        C  0.49977882  0.28468865  0.62789676    -0.07200
C900        C  0.49598895  0.27018452  0.61220685    -0.08000
C901        C  0.48256246  0.30249131  0.60116977    -0.02500
C902        C  0.47316183  0.35118488  0.60612793     0.04300
N903        N  0.45863932  0.38606459  0.59563119     0.66800
H904        H  0.46837346  0.40190620  0.62562656     0.15700
H905        H  0.50436650  0.23368566  0.60855912     0.15400
N906        N  0.51498353  0.25084058  0.63859380     0.74500
O907        O  0.43081294  0.37748303  0.59029867    -0.38900
O908        O  0.47068028  0.42897552  0.59410349    -0.38900
O909        O  0.51047828  0.20454872  0.63730738    -0.39600
O910        O  0.53586459  0.26654362  0.64810831    -0.39700
C911        C  0.58405795  0.26460932  0.68044522    -0.11900
C912        C  0.57556949  0.31452611  0.68257665     0.05100
C913        C  0.60054784  0.35008378  0.68494281    -0.07200
C914        C  0.63305655  0.33507808  0.68456195    -0.08000
C915        C  0.64158309  0.28518495  0.68218708    -0.02500
C916        C  0.61642428  0.24958349  0.68021744     0.04300
N917        N  0.62301948  0.19791536  0.67764866     0.66800
H918        H  0.56545394  0.23685217  0.67858684     0.15700
H919        H  0.65173889  0.36276680  0.68630163     0.15400
N920        N  0.59352841  0.40145071  0.68804440     0.74500
O921        O  0.62508380  0.16902550  0.68926571    -0.38900
O922        O  0.62027743  0.17981366  0.66401950    -0.38900
O923        O  0.57713231  0.41345234  0.70010513    -0.39600
O924        O  0.60766934  0.43493433  0.68015782    -0.39700
C925        C  0.46352903  0.36335320  0.86379210    -0.11900
C926        C  0.46525248  0.40223768  0.85296180     0.05100
C927        C  0.46709878  0.45199430  0.85859680    -0.07200
C928        C  0.46860433  0.46141963  0.87473440    -0.08000
C929        C  0.46813181  0.42237178  0.88552531    -0.02500
C930        C  0.46470063  0.37272932  0.87995030     0.04300
N931        N  0.46208396  0.33129385  0.89047821     0.66800
H932        H  0.46168268  0.32524082  0.85970708     0.15700
H933        H  0.47094198  0.49949785  0.87879861     0.15400
N934        N  0.46772383  0.49357912  0.84813339     0.74500
O935        O  0.43948073  0.32996466  0.90058850    -0.38900
O936        O  0.47924047  0.29301042  0.88819729    -0.38900
O937        O  0.44188243  0.50809539  0.84186812    -0.39600
O938        O  0.49301588  0.51965007  0.84681684    -0.39700
C939        C  0.58766846  0.34645564  0.81253274    -0.11900
C940        C  0.56080014  0.31748239  0.80863276     0.05100
C941        C  0.56544807  0.26576081  0.80581244    -0.07200
C942        C  0.59630460  0.24455333  0.80707055    -0.08000
C943        C  0.62330950  0.27351261  0.81081529    -0.02500
C944        C  0.61856059  0.32518873  0.81383705     0.04300
N945        N  0.64464229  0.35680733  0.81847760     0.66800
H946        H  0.58459676  0.38577000  0.81500429     0.15700
H947        H  0.59925085  0.20529902  0.80448309     0.15400
N948        N  0.53942017  0.23433743  0.80093318     0.74500
O949        O  0.65241694  0.39371646  0.81009396    -0.38900
O950        O  0.65660176  0.35222296  0.83198447    -0.38900
O951        O  0.52619884  0.24163205  0.78783815    -0.39600
O952        O  0.53264650  0.19553450  0.80863221    -0.39700
C953        C  0.47934094  0.40841499  0.75143259    -0.11900
C954        C  0.47400110  0.36323840  0.75951782     0.05100
C955        C  0.47129885  0.31899178  0.75079638    -0.07200
C956        C  0.47435604  0.32070120  0.73442298    -0.08000
C957        C  0.47971204  0.36592651  0.72634552    -0.02500
C958        C  0.48264085  0.41016025  0.73509288     0.04300
N959        N  0.48913973  0.45708250  0.72774642     0.66800
H960        H  0.48156129  0.44313816  0.75783169     0.15700
H961        H  0.47214754  0.28600558  0.72800538     0.15400
N962        N  0.46558387  0.27209201  0.75825413     0.74500
O963        O  0.51662445  0.46492936  0.72158281    -0.38900
O964        O  0.47054780  0.49349108  0.73042669    -0.38900
O965        O  0.43766386  0.26194411  0.76352831    -0.39600
O966        O  0.48632853  0.23782394  0.75689644    -0.39700
C967        C  0.21824769  0.57919769  0.62960164    -0.11900
C968        C  0.23227780  0.02529727  0.63493111     0.05100
C969        C  0.21892476  0.07144522  0.63026838    -0.07200
C970        C  0.22409792  0.08864141  0.61487118    -0.08000
C971        C  0.24202362  0.06068376  0.60388398    -0.02500
C972        C  0.25504791  0.01402272  0.60863760     0.04300
N973        N  0.19694447  0.63645590  0.60998988     0.66800
H974        H  0.20274982  0.59714287  0.63830096     0.15700
H975        H  0.21314354  0.12344017  0.61134771     0.15400
N976        N  0.19933579  0.10055445  0.64093766     0.74500
O977        O  0.17600427  0.62964795  0.59951723    -0.38900
O978        O  0.26998791  0.93858617  0.59691452    -0.38900
O979        O  0.19971982  0.14747183  0.64022533    -0.39600
O980        O  0.17891111  0.07947731  0.64985190    -0.39700
C981        C  0.09587098  0.08969045  0.68132375    -0.11900
C982        C  0.07372678  0.04974627  0.68237826     0.05100
C983        C  0.08591846  0.00169366  0.68504272    -0.07200
C984        C  0.11937937  0.99429524  0.68600534    -0.08000
C985        C  0.14162325  0.03401548  0.68447585    -0.02500
C986        C  0.12936477  0.08262285  0.68257965     0.04300
N987        N  0.15020128  0.12524347  0.68179383     0.66800
H988        H  0.08719435  0.12733991  0.67970740     0.15700
H989        H  0.13054610  0.46742599  0.68692509     0.15400
N990        N  0.06739554  0.46940572  0.68645177     0.74500
O991        O  0.14629384  0.15712534  0.67110464    -0.38900
O992        O  0.16720618  0.13648196  0.69350675    -0.38900
O993        O  0.05483299  0.44895112  0.67462680    -0.39600
O994        O  0.06670821  0.44724305  0.69951943    -0.39700
C995        C  0.35402392  0.47720689  0.68580018    -0.11900
C996        C  0.32946341  0.45487197  0.67703457     0.05100
C997        C  0.33652451  0.40992254  0.66873442    -0.07200
C998        C  0.36735822  0.38848242  0.66959654    -0.08000
C999        C  0.39148570  0.41031769  0.67861971    -0.02500
C1000       C  0.38463320  0.45496962  0.68688551     0.04300
N1001       N  0.40792512  0.47644018  0.69721429     0.66800
H1002       H  0.34894687  0.51068174  0.69253233     0.15700
H1003       H  0.37258674  0.35482483  0.66297878     0.15400
N1004       N  0.31314218  0.38586360  0.65901707     0.74500
O1005       O  0.41629576  0.52130952  0.69559742    -0.38900
O1006       O  0.41737953  0.45224281  0.70900030    -0.38900
O1007       O  0.31914986  0.38109401  0.64449460    -0.39600
O1008       O  0.29233582  0.35762150  0.66532275    -0.39700
C1009       C  0.21269116  0.38338219  0.85519302    -0.11900
C1010       C  0.21887461  0.43404098  0.85177833     0.05100
C1011       C  0.22730952  0.46590776  0.86424926    -0.07200
C1012       C  0.22824576  0.44729609  0.87962368    -0.08000
C1013       C  0.22141619  0.39697458  0.88303224    -0.02500
C1014       C  0.21356970  0.36468344  0.87058477     0.04300
N1015       N  0.20466061  0.31379414  0.87335323     0.66800
H1016       H  0.20615600  0.35790963  0.84586602     0.15700
H1017       H  0.23473207  0.47261322  0.88901532     0.15400
N1018       N  0.23515105  0.51707031  0.86160256     0.74500
O1019       O  0.18277387  0.30351488  0.88332894    -0.38900
O1020       O  0.21486528  0.28005864  0.86419045    -0.38900
O1021       O  0.21784981  0.55073244  0.86778169    -0.39600
O1022       O  0.26206326  0.52838344  0.85538777    -0.39700
C1023       C  0.33223891  0.47495126  0.80501835    -0.11900
C1024       C  0.30972944  0.43623653  0.80242739     0.05100
C1025       C  0.32164526  0.38816315  0.79910362    -0.07200
C1026       C  0.35507495  0.37950866  0.79926423    -0.08000
C1027       C  0.37748798  0.41791684  0.80233192    -0.02500
C1028       C  0.36570157  0.46643893  0.80481690     0.04300
N1029       N  0.38709790  0.50722623  0.80766676     0.66800
H1030       H  0.32394431  0.51252118  0.80735577     0.15700
H1031       H  0.36351489  0.34199696  0.79693171     0.15400
N1032       N  0.30041375  0.34764916  0.79556216     0.74500
O1033       O  0.40363191  0.52506072  0.79643744    -0.38900
O1034       O  0.38498589  0.53096271  0.82046774    -0.38900
O1035       O  0.28438842  0.34823877  0.78302275    -0.39600
O1036       O  0.30184716  0.30801065  0.80345161    -0.39700
C1037       C  0.08628293  0.09643712  0.80995765    -0.11900
C1038       C  0.05997955  0.06499687  0.80721514     0.05100
C1039       C  0.06585729  0.01305427  0.80547238    -0.07200
C1040       C  0.09735610  0.99413282  0.80681480    -0.08000
C1041       C  0.12373750  0.02551794  0.80955891    -0.02500
C1042       C  0.11777129  0.07749233  0.81125384     0.04300
N1043       N  0.14327758  0.11195617  0.81437844     0.66800
H1044       H  0.08235844  0.13604341  0.81148484     0.15700
H1045       H  0.10194834  0.45683842  0.81663711     0.15400
N1046       N  0.04041080  0.97891697  0.80172667     0.74500
O1047       O  0.15184189  0.14281370  0.80396372    -0.38900
O1048       O  0.15356758  0.11674833  0.82821366    -0.38900
O1049       O  0.02486559  0.98412353  0.78915058    -0.39600
O1050       O  0.03669153  0.93975057  0.80971265    -0.39700
C1051       C  0.24091049  0.52686916  0.75284528    -0.11900
C1052       C  0.21794991  0.49422304  0.75924181     0.05100
C1053       C  0.20177034  0.46049527  0.74912244    -0.07200
C1054       C  0.21012279  0.45863430  0.73311841    -0.08000
C1055       C  0.23340865  0.49077528  0.72673985    -0.02500
C1056       C  0.24907291  0.52527308  0.73680668     0.04300
N1057       N  0.27402606  0.55795096  0.73108411     0.66800
H1058       H  0.25399396  0.55190456  0.76049471     0.15700
H1059       H  0.19703583  0.43360663  0.72546867     0.15400
N1060       N  0.17617642  0.42881206  0.75478963     0.74500
O1061       O  0.27391589  0.60328155  0.73502379    -0.38900
O1062       O  0.29804387  0.54054614  0.72355755    -0.38900
O1063       O  0.15353780  0.44663452  0.76319025    -0.39600
O1064       O  0.17416740  0.38445799  0.74996445    -0.39700
C1065       C  0.23392200  0.13535403  0.35945793    -0.11900
C1066       C  0.25052777  0.17787819  0.35386600     0.05100
C1067       C  0.27090073  0.20401836  0.36423510    -0.07200
C1068       C  0.27330900  0.18810330  0.37986154    -0.08000
C1069       C  0.25686888  0.14560144  0.38527147    -0.02500
C1070       C  0.23709076  0.11905323  0.37496295     0.04300
N1071       N  0.21814475  0.07792488  0.38041673     0.66800
H1072       H  0.21796859  0.11474413  0.35180001     0.15700
H1073       H  0.28823710  0.20907221  0.38788495     0.15400
N1074       N  0.28996471  0.24562054  0.35909815     0.74500
O1075       O  0.18973290  0.08497489  0.38558448    -0.38900
O1076       O  0.23015096  0.03476695  0.38055893    -0.38900
O1077       O  0.28995573  0.28525301  0.36710210    -0.39600
O1078       O  0.31092579  0.23989341  0.34830275    -0.39700
C1079       C  0.25147495  0.30646331  0.12952019    -0.11900
C1080       C  0.24231323  0.25763877  0.13390751     0.05100
C1081       C  0.22962013  0.22588185  0.12225379    -0.07200
C1082       C  0.22611908  0.24372203  0.10685219    -0.08000
C1083       C  0.23533249  0.29242314  0.10260761    -0.02500
C1084       C  0.24787038  0.32417809  0.11417799     0.04300
N1085       N  0.25836165  0.37367755  0.11049988     0.66800
H1086       H  0.26123843  0.33194733  0.13813514     0.15700
H1087       H  0.21694046  0.21864387  0.09795274     0.15400
N1088       N  0.22088916  0.17536328  0.12561032     0.74500
O1089       O  0.23791924  0.40585272  0.10638320    -0.38900
O1090       O  0.28638918  0.38760620  0.11427802    -0.38900
O1091       O  0.19408154  0.15856968  0.12101665    -0.39600
O1092       O  0.24216837  0.14532476  0.13028974    -0.39700
C1093       C  0.25080797  0.17628692  0.23513716    -0.11900
C1094       C  0.23979636  0.21914851  0.22763824     0.05100
C1095       C  0.23243817  0.26220211  0.23675009    -0.07200
C1096       C  0.23707528  0.26158226  0.25304712    -0.08000
C1097       C  0.24802330  0.21868675  0.26053346    -0.02500
C1098       C  0.25551179  0.17571854  0.25142631     0.04300
N1099       N  0.26911831  0.13194697  0.25843372     0.66800
H1100       H  0.25749423  0.14392686  0.22818293     0.15700
H1101       H  0.23043351  0.29394289  0.26001268     0.15400
N1102       N  0.21909251  0.30616209  0.22974893     0.74500
O1103       O  0.26098580  0.08929219  0.25364285    -0.38900
O1104       O  0.29204708  0.13581734  0.26803551    -0.38900
O1105       O  0.19609342  0.30262704  0.22017627    -0.39600
O1106       O  0.22750599  0.34869253  0.23453619    -0.39700
C1107       C  0.51649169  0.11247380  0.36511696    -0.11900
C1108       C  0.49955073  0.14057201  0.35419092     0.05100
C1109       C  0.48686836  0.18748508  0.35866555    -0.07200
C1110       C  0.49224548  0.20596742  0.37383486    -0.08000
C1111       C  0.50993439  0.17851633  0.38477157    -0.02500
C1112       C  0.52263715  0.13127480  0.38016890     0.04300
N1113       N  0.54320912  0.10289868  0.39024098     0.66800
H1114       H  0.52694192  0.07711891  0.36160338     0.15700
H1115       H  0.48165214  0.24138430  0.37721034     0.15400
N1116       N  0.46780246  0.21616963  0.34799731     0.74500
O1117       O  0.53850277  0.05679067  0.39191821    -0.38900
O1118       O  0.56907204  0.12188622  0.39524834    -0.38900
O1119       O  0.44502469  0.19582819  0.34060333    -0.39600
O1120       O  0.47181960  0.26261217  0.34696398    -0.39700
C1121       C  0.36315622  0.20542073  0.30604271    -0.11900
C1122       C  0.34033382  0.16629163  0.30578578     0.05100
C1123       C  0.35182625  0.11693026  0.30505907    -0.07200
C1124       C  0.38525366  0.10804089  0.30474272    -0.08000
C1125       C  0.40803804  0.14715267  0.30538159    -0.02500
C1126       C  0.39655749  0.19654375  0.30572138     0.04300
N1127       N  0.41815454  0.23824050  0.30587501     0.66800
H1128       H  0.35514577  0.24379574  0.30637259     0.15700
H1129       H  0.39334772  0.06970048  0.30440197     0.15400
N1130       N  0.33022180  0.07525018  0.30514836     0.74500
O1131       O  0.43524606  0.24764602  0.29383030    -0.38900
O1132       O  0.41511533  0.27100443  0.31646023    -0.38900
O1133       O  0.33282228  0.04235592  0.29458016    -0.39600
O1134       O  0.31311949  0.06644120  0.31723767    -0.39700
C1135       C  0.49670211  0.97855898  0.11576331    -0.11900
C1136       C  0.47914297  0.00616341  0.10481531     0.05100
C1137       C  0.46619775  0.05315161  0.10953495    -0.07200
C1138       C  0.47178863  0.07143402  0.12473144    -0.08000
C1139       C  0.48896199  0.04342844  0.13561230    -0.02500
C1140       C  0.50189925  0.99665137  0.13102832     0.04300
N1141       N  0.52107058  0.96769659  0.14162924     0.66800
H1142       H  0.49239693  0.42893432  0.11219872     0.15700
H1143       H  0.46085038  0.10635510  0.12837559     0.15400
N1144       N  0.44618561  0.08204553  0.09935218     0.74500
O1145       O  0.47329473  0.41902538  0.14912386    -0.38900
O1146       O  0.54194613  0.98862533  0.15010164    -0.38900
O1147       O  0.42064010  0.06335749  0.09388370    -0.39600
O1148       O  0.45119300  0.12813613  0.09783867    -0.39700
C1149       C  0.39226732  0.18037865  0.18618388    -0.11900
C1150       C  0.39659224  0.13157170  0.18038667     0.05100
C1151       C  0.36970786  0.10596893  0.17435064    -0.07200
C1152       C  0.33933620  0.12936788  0.17450341    -0.08000
C1153       C  0.33480911  0.17816395  0.18039297    -0.02500
C1154       C  0.36180260  0.20363715  0.18647691     0.04300
N1155       N  0.35871148  0.25183026  0.19364319     0.66800
H1156       H  0.41268389  0.20019925  0.19105431     0.15700
H1157       H  0.31912410  0.10928870  0.16955780     0.15400
N1158       N  0.37289570  0.05745486  0.16734999     0.74500
O1159       O  0.33917624  0.25815940  0.20501981    -0.38900
O1160       O  0.37944116  0.28510184  0.19064504    -0.38900
O1161       O  0.35091920  0.02539771  0.16940501    -0.39600
O1162       O  0.39501176  0.04904822  0.15729790    -0.39700
C1163       C  0.46884862  0.06857199  0.23785991    -0.11900
C1164       C  0.49192671  0.09357568  0.22846440     0.05100
C1165       C  0.51880408  0.11599791  0.23567306    -0.07200
C1166       C  0.52139552  0.11414836  0.25207596    -0.08000
C1167       C  0.49826435  0.08929157  0.26146743    -0.02500
C1168       C  0.47147719  0.06663143  0.25425857     0.04300
N1169       N  0.44582713  0.04433184  0.26335182     0.66800
H1170       H  0.44811244  0.05126480  0.23239807     0.15700
H1171       H  0.54211070  0.13146449  0.25755354     0.15400
N1172       N  0.54456674  0.13797124  0.22657721     0.74500
O1173       O  0.43201585  0.06884042  0.27420284    -0.38900
O1174       O  0.43342217  0.00384542  0.25889131    -0.38900
O1175       O  0.55732664  0.17813565  0.23108782    -0.39600
O1176       O  0.55816168  0.11332872  0.21569247    -0.39700
C1177       C  0.01842239  0.36525523  0.36418557    -0.11900
C1178       C  0.99697480  0.38748792  0.35378916     0.05100
C1179       C  0.98037977  0.43141015  0.35836356    -0.07200
C1180       C  0.98620860  0.45277968  0.37312852    -0.08000
C1181       C  0.00797219  0.43098903  0.38355259    -0.02500
C1182       C  0.02457796  0.38680344  0.37889365     0.04300
N1183       N  0.04889538  0.36464159  0.38857131     0.66800
H1184       H  0.03222623  0.33296766  0.36039215     0.15700
H1185       H  0.97265691  0.48550090  0.37672491     0.15400
N1186       N  0.95712250  0.45411434  0.34820525     0.74500
O1187       O  0.05110748  0.31788327  0.38949539    -0.38900
O1188       O  0.07081156  0.39133016  0.39445099    -0.38900
O1189       O  0.93762843  0.42737678  0.34061559    -0.39600
O1190       O  0.95372553  0.50079700  0.34804102    -0.39700
C1191       C  0.09599932  0.25203928  0.31238379    -0.11900
C1192       C  0.09178073  0.30298941  0.30884197     0.05100
C1193       C  0.11957450  0.33176895  0.30540339    -0.07200
C1194       C  0.15030321  0.30955885  0.30588885    -0.08000
C1195       C  0.15442144  0.25865444  0.30937075    -0.02500
C1196       C  0.12673778  0.22978726  0.31278421     0.04300
N1197       N  0.12927238  0.17852892  0.31727443     0.66800
H1198       H  0.07520953  0.22906310  0.31522944     0.15700
H1199       H  0.17117704  0.33231906  0.30298162     0.15400
N1200       N  0.11726413  0.38293419  0.30084568     0.74500
O1201       O  0.14672726  0.16641005  0.32872692    -0.38900
O1202       O  0.11044856  0.14664388  0.31143633    -0.38900
O1203       O  0.13451996  0.41517697  0.30756226    -0.39600
O1204       O  0.10318185  0.39419197  0.28825501    -0.39700
C1205       C  0.99276130  0.30356158  0.10697437    -0.11900
C1206       C  0.98926131  0.25255658  0.10336185     0.05100
C1207       C  0.98920232  0.21781658  0.11571955    -0.07200
C1208       C  0.99140322  0.23494977  0.13127481    -0.08000
C1209       C  0.99315560  0.28625407  0.13492548    -0.02500
C1210       C  0.99497694  0.32062229  0.12248275     0.04300
N1211       N  0.99848820  0.37289374  0.12527662     0.66800
H1212       H  0.99391400  0.33084724  0.09761848     0.15700
H1213       H  0.99043136  0.20767256  0.14063018     0.15400
N1214       N  0.98509759  0.16559396  0.11286609     0.74500
O1215       O  0.02483475  0.38947543  0.13051148    -0.38900
O1216       O  0.97807362  0.40289745  0.11976918    -0.38900
O1217       O  0.00305604  0.13456744  0.11966387    -0.39600
O1218       O  0.96061026  0.15020460  0.10557651    -0.39700
C1219       C  0.13701599  0.30942236  0.18873553    -0.11900
C1220       C  0.14855747  0.26739139  0.18068594     0.05100
C1221       C  0.12591380  0.23357957  0.17406226    -0.07200
C1222       C  0.09265133  0.24143491  0.17630818    -0.08000
C1223       C  0.08123747  0.28342682  0.18430671    -0.02500
C1224       C  0.10369036  0.31762289  0.19064257     0.04300
N1225       N  0.09291247  0.36017651  0.19943072     0.66800
H1226       H  0.15388855  0.33510012  0.19406675     0.15700
H1227       H  0.07558740  0.21638160  0.17081841     0.15400
N1228       N  0.13612122  0.19260733  0.16429794     0.74500
O1229       O  0.07548630  0.35450134  0.21159846    -0.38900
O1230       O  0.10266789  0.40312176  0.19571652    -0.38900
O1231       O  0.12199499  0.15108461  0.16540840    -0.39600
O1232       O  0.15583081  0.19981154  0.15305479    -0.39700
C1233       C  0.00941839  0.37702416  0.25182979    -0.11900
C1234       C  0.99748622  0.33675993  0.26084774     0.05100
C1235       C  0.98075207  0.29829961  0.25313482    -0.07200
C1236       C  0.97577412  0.30160421  0.23692748    -0.08000
C1237       C  0.98786236  0.34170660  0.22788821    -0.02500
C1238       C  0.00445033  0.38035114  0.23561054     0.04300
N1239       N  0.01610451  0.42344910  0.22738318     0.66800
H1240       H  0.02205212  0.40739991  0.25747205     0.15700
H1241       H  0.96310432  0.27122381  0.23130513     0.15400
N1242       N  0.96900883  0.25531596  0.26136992     0.74500
O1243       O  0.99630413  0.45132375  0.22044243    -0.38900
O1244       O  0.04436283  0.43926234  0.22985563    -0.38900
O1245       O  0.94030160  0.24079614  0.25935357    -0.39600
O1246       O  0.98885549  0.22640067  0.26784886    -0.39700
C1247       C  0.76079787  0.45541294  0.38119932    -0.11900
C1248       C  0.75578712  0.40603279  0.38621697     0.05100
C1249       C  0.74859296  0.36944580  0.37501907    -0.07200
C1250       C  0.74506179  0.38299072  0.35925883    -0.08000
C1251       C  0.74850205  0.43293014  0.35424895    -0.02500
C1252       C  0.75707232  0.46925831  0.36544944     0.04300
N1253       N  0.76124556  0.52041656  0.36123833     0.66800
H1254       H  0.76661440  0.48405016  0.38971184     0.15700
H1255       H  0.73915446  0.35388360  0.35093830     0.15400
N1256       N  0.74305851  0.31896418  0.37955580     0.74500
O1257       O  0.73717034  0.54564489  0.35693931    -0.38900
O1258       O  0.78744669  0.54231147  0.36430964    -0.38900
O1259       O  0.71574748  0.30603043  0.38496213    -0.39600
O1260       O  0.76460997  0.28654621  0.37701838    -0.39700
C1261       C  0.84888086  0.36931758  0.30282097    -0.11900
C1262       C  0.83887628  0.41736192  0.30705376     0.05100
C1263       C  0.86292008  0.45373473  0.31041997    -0.07200
C1264       C  0.89580185  0.44152699  0.30909852    -0.08000
C1265       C  0.90566758  0.39323749  0.30524439    -0.02500
C1266       C  0.88177156  0.35695809  0.30194593     0.04300
N1267       N  0.89045866  0.30753303  0.29729330     0.66800
H1268       H  0.83111623  0.34112931  0.29998962     0.15700
H1269       H  0.91372511  0.46944595  0.31197226     0.15400
N1270       N  0.85464458  0.50261341  0.31593686     0.74500
O1271       O  0.88752320  0.27227106  0.30697992    -0.38900
O1272       O  0.89610249  0.29804124  0.28297567    -0.38900
O1273       O  0.84035672  0.50783023  0.32905930    -0.39600
O1274       O  0.86658875  0.54030432  0.30919954    -0.39700
C1275       C  0.63203470  0.99318817  0.31853951    -0.11900
C1276       C  0.65334305  0.00560417  0.30624700     0.05100
C1277       C  0.64438896  0.04285658  0.29538708    -0.07200
C1278       C  0.61477346  0.06792742  0.29735124    -0.08000
C1279       C  0.59344806  0.05571407  0.30967110    -0.02500
C1280       C  0.60227764  0.01801393  0.32044170     0.04300
N1281       N  0.58203320  0.00634227  0.33378720     0.66800
H1282       H  0.63421179  0.45202580  0.32453364     0.15700
H1283       H  0.60756117  0.09524962  0.28872236     0.15400
N1284       N  0.66453558  0.05393852  0.28194300     0.74500
O1285       O  0.57989993  0.96210625  0.33864845    -0.38900
O1286       O  0.56932002  0.04088207  0.34183607    -0.38900
O1287       O  0.67825272  0.01906516  0.27445160    -0.39600
O1288       O  0.66515991  0.09731346  0.27628030    -0.39700
C1289       C  0.73917863  0.05836478  0.12946312    -0.11900
C1290       C  0.73842069  0.00734430  0.13347817     0.05100
C1291       C  0.73404252  0.97196596  0.12144751    -0.07200
C1292       C  0.73185298  0.98797424  0.10583742    -0.08000
C1293       C  0.73427658  0.03876347  0.10181384    -0.02500
C1294       C  0.73711116  0.07418093  0.11386775     0.04300
N1295       N  0.73926573  0.12612122  0.11046811     0.66800
H1296       H  0.74169122  0.08662028  0.13848083     0.15700
H1297       H  0.72916943  0.96006593  0.09672238     0.15400
N1298       N  0.74138248  0.41235292  0.12463418     0.74500
O1299       O  0.71428363  0.15303292  0.11142371    -0.38900
O1300       O  0.76657183  0.14597113  0.10811639    -0.38900
O1301       O  0.72271202  0.38164464  0.11810367    -0.39600
O1302       O  0.76598123  0.39649986  0.13171200    -0.39700
C1303       C  0.60380287  0.07501796  0.18467878    -0.11900
C1304       C  0.58106760  0.03576323  0.18424923     0.05100
C1305       C  0.59261427  0.98643185  0.18386186    -0.07200
C1306       C  0.62603587  0.97778804  0.18294384    -0.08000
C1307       C  0.64871540  0.01716497  0.18276647    -0.02500
C1308       C  0.63715947  0.06628887  0.18390433     0.04300
N1309       N  0.65871822  0.10791061  0.18384171     0.66800
H1310       H  0.59573403  0.11335163  0.18523428     0.15700
H1311       H  0.63419568  0.93949746  0.18250041     0.15400
N1312       N  0.57106985  0.94466731  0.18430435     0.74500
O1313       O  0.67188255  0.12170480  0.17110074    -0.38900
O1314       O  0.66063727  0.13526501  0.19588239    -0.38900
O1315       O  0.57552338  0.40488698  0.16754500    -0.39600
O1316       O  0.55272520  0.41774766  0.19040444    -0.39700
C1317       C  0.89155082  0.42321106  0.17344960    -0.11900
C1318       C  0.89584394  0.37358876  0.17852624     0.05100
C1319       C  0.86846160  0.34712618  0.18398926    -0.07200
C1320       C  0.83801924  0.37018867  0.18422462    -0.08000
C1321       C  0.83379513  0.41953211  0.17904315    -0.02500
C1322       C  0.86102682  0.44613271  0.17367123     0.04300
N1323       N  0.85797867  0.49575800  0.16789139     0.66800
H1324       H  0.91204244  0.44465062  0.16918119     0.15700
H1325       H  0.81742083  0.34908225  0.18856098     0.15400
N1326       N  0.87107452  0.29732736  0.18970930     0.74500
O1327       O  0.86655272  0.53205854  0.17630573    -0.38900
O1328       O  0.84960411  0.50304078  0.15386303    -0.38900
O1329       O  0.86629704  0.28857977  0.20413202    -0.39600
O1330       O  0.87277650  0.26155190  0.18008718    -0.39700
C1331       C  0.74916517  0.41627593  0.23519258    -0.11900
C1332       C  0.74041192  0.45978905  0.22736277     0.05100
C1333       C  0.73319100  0.01067476  0.23546158    -0.07200
C1334       C  0.73834491  0.01157547  0.25167617    -0.08000
C1335       C  0.74742013  0.46047248  0.26032607    -0.02500
C1336       C  0.75318827  0.41619240  0.25154830     0.04300
N1337       N  0.76461789  0.37158561  0.25892208     0.66800
H1338       H  0.75453564  0.38286970  0.22848045     0.15700
H1339       H  0.73173313  0.04449392  0.25837306     0.15400
N1340       N  0.71866855  0.05333360  0.22820582     0.74500
O1341       O  0.75435272  0.32964461  0.25449767    -0.38900
O1342       O  0.78793694  0.37355072  0.26835838    -0.38900
O1343       O  0.69567141  0.04772327  0.21872862    -0.39600
O1344       O  0.72592620  0.09666295  0.23272431    -0.39700
O1345       O  0.70472961  0.52948574  0.18326679    -0.74100
O1346       O  0.79472394  0.48733707  0.18063385    -0.74100
O1347       O  0.74975035  0.52048036  0.16009009    -0.74200
O1348       O  0.75042071  0.50206882  0.20381113    -0.74200
O1349       O  0.73492789  0.93117093  0.20081428    -0.74200
O1350       O  0.73397778  0.95050733  0.15566650    -0.74100
O1351       O  0.77802397  0.91698826  0.17689969    -0.74100
O1352       O  0.69022463  0.45060059  0.17994020    -0.74200
Ni1353     Ni  0.75056684  0.51259461  0.18202935     1.25400
Ni1354     Ni  0.73406339  0.93654923  0.17806802     1.25400
C1355       C  0.68254797  0.49599452  0.18204692     0.88100
C1356       C  0.80134368  0.94760285  0.17842392     0.88000
C1357       C  0.74067817  0.48612181  0.15082585     0.88000
C1358       C  0.74234799  0.96894307  0.20939279     0.88200
O1359       O  0.78539784  0.90552171  0.30498989    -0.74100
O1360       O  0.69435190  0.94126091  0.30565126    -0.74100
O1361       O  0.74069681  0.92747824  0.28323231    -0.74200
O1362       O  0.73882938  0.91442939  0.32723542    -0.74200
O1363       O  0.75282700  0.99385344  0.33033408    -0.74200
O1364       O  0.75417122  0.00759851  0.28502878    -0.74100
O1365       O  0.70905340  0.02079304  0.30800707    -0.74100
O1366       O  0.79767303  0.98585496  0.30724506    -0.74200
Ni1367     Ni  0.73924047  0.91937139  0.30519447     1.25400
Ni1368     Ni  0.75375148  0.00496851  0.30777725     1.25400
C1369       C  0.80651352  0.94060927  0.30615784     0.88100
C1370       C  0.68711943  0.98777149  0.30668135     0.88000
C1371       C  0.74842886  0.96847872  0.27675675     0.88000
C1372       C  0.74659904  0.95057643  0.33611026     0.88200
O1373       O  0.02354722  0.76601915  0.18414719    -0.74100
O1374       O  0.93492994  0.81176883  0.18062743    -0.74100
O1375       O  0.98020364  0.77153617  0.16074480    -0.74200
O1376       O  0.97770468  0.80138267  0.20404021    -0.74200
O1377       O  0.99622362  0.87776711  0.19967120    -0.74200
O1378       O  0.99751644  0.84768950  0.15501259    -0.74100
O1379       O  0.95365736  0.88778713  0.17575411    -0.74100
O1380       O  0.04018122  0.84303228  0.17877631    -0.74200
Ni1381     Ni  0.97837623  0.78501091  0.18252301     1.25400
Ni1382     Ni  0.99738844  0.86688422  0.17708117     1.25400
C1383       C  0.04646314  0.79803641  0.18224242     0.88100
C1384       C  0.92986486  0.85826325  0.17794425     0.88000
C1385       C  0.98996366  0.80328510  0.15064673     0.88000
C1386       C  0.98721119  0.84327355  0.20925509     0.88200
O1387       O  0.96661611  0.92796926  0.30254444    -0.74100
O1388       O  0.05408488  0.87658532  0.30608677    -0.74100
O1389       O  0.01176094  0.89103439  0.28253944    -0.74200
O1390       O  0.00950365  0.91851754  0.32606039    -0.74200
O1391       O  0.99140217  0.84204261  0.33132045    -0.74200
O1392       O  0.99090706  0.81583291  0.28648723    -0.74100
O1393       O  0.03357409  0.80116027  0.31004211    -0.74100
O1394       O  0.94839020  0.85157903  0.30770278    -0.74200
Ni1395     Ni  0.01130408  0.90619886  0.30419295     1.25400
Ni1396     Ni  0.99047098  0.82490466  0.30910411     1.25400
C1397       C  0.94310465  0.89692049  0.30425566     0.88100
C1398       C  0.05807006  0.82952205  0.30825806     0.88000
C1399       C  0.00077418  0.85028925  0.27709873     0.88000
C1400       C  0.99988147  0.88583523  0.33585980     0.88200
O1401       O  0.52142071  0.50311768  0.18574932    -0.74100
O1402       O  0.43249341  0.54948202  0.18368667    -0.74100
O1403       O  0.47661640  0.51134308  0.16304492    -0.74200
O1404       O  0.47628752  0.53557425  0.20656618    -0.74200
O1405       O  0.49533686  0.61242217  0.20290335    -0.74200
O1406       O  0.49349487  0.58830969  0.15793843    -0.74100
O1407       O  0.45139379  0.62610814  0.17974494    -0.74100
O1408       O  0.53762564  0.58055806  0.18094054    -0.74200
Ni1409     Ni  0.47599697  0.52215546  0.18488921     1.25400
Ni1410     Ni  0.49495549  0.60469973  0.18020168     1.25400
C1411       C  0.54426188  0.53528817  0.18383015     0.88100
C1412       C  0.42764154  0.59631658  0.18144856     0.88000
C1413       C  0.48550387  0.54438255  0.15325244     0.88000
C1414       C  0.48660735  0.57654628  0.21204042     0.88200
O1415       O  0.46153462  0.65882699  0.30385821    -0.74100
O1416       O  0.55124462  0.61636291  0.30655039    -0.74100
O1417       O  0.50671144  0.62330986  0.28373280    -0.74200
O1418       O  0.50695824  0.65744762  0.32652343    -0.74200
O1419       O  0.49093303  0.58146738  0.33342696    -0.74200
O1420       O  0.48902644  0.54670444  0.28911779    -0.74100
O1421       O  0.53352832  0.54030578  0.31238512    -0.74100
O1422       O  0.44634200  0.58219740  0.31040911    -0.74200
Ni1423     Ni  0.50725152  0.64168279  0.30498774     1.25400
Ni1424     Ni  0.48950544  0.55984493  0.31159486     1.25400
C1425       C  0.43907149  0.62642907  0.30645650     0.88100
C1426       C  0.55685455  0.57040894  0.30988934     0.88000
C1427       C  0.49705372  0.58082910  0.27919804     0.88000
C1428       C  0.49859945  0.62650948  0.33709093     0.88200
O1429       O  0.20506334  0.77946991  0.18171490    -0.74100
O1430       O  0.29439223  0.73374231  0.18180975    -0.74100
O1431       O  0.25232231  0.76590542  0.15987854    -0.74200
O1432       O  0.24816356  0.75254357  0.20376114    -0.74200
O1433       O  0.23174868  0.67394923  0.20173537    -0.74200
O1434       O  0.23441538  0.68878731  0.15635319    -0.74100
O1435       O  0.27624076  0.65651915  0.17864749    -0.74100
O1436       O  0.18967182  0.70057474  0.17945533    -0.74200
Ni1437     Ni  0.25063934  0.76067468  0.18187694     1.25400
Ni1438     Ni  0.23252918  0.67710214  0.17892975     1.25400
C1439       C  0.18254437  0.74646275  0.18050529     0.88100
C1440       C  0.29973206  0.68667962  0.18032401     0.88000
C1441       C  0.24354108  0.73104974  0.15072381     0.88000
C1442       C  0.23888211  0.71225581  0.21015718     0.88200
O1443       O  0.27819807  0.63796473  0.30469154    -0.74100
O1444       O  0.18937767  0.68608817  0.30783587    -0.74100
O1445       O  0.23235025  0.66741899  0.28437711    -0.74200
O1446       O  0.23435430  0.65088806  0.32814437    -0.74200
O1447       O  0.25292089  0.72786894  0.33154996    -0.74200
O1448       O  0.25075781  0.74500098  0.28632702    -0.74100
O1449       O  0.20893560  0.76260409  0.31065582    -0.74100
O1450       O  0.29481295  0.71617945  0.30741693    -0.74200
Ni1451     Ni  0.23280688  0.65786396  0.30619770     1.25400
Ni1452     Ni  0.25232413  0.74076697  0.30910264     1.25400
C1453       C  0.30124410  0.67023460  0.30555967     0.88100
C1454       C  0.18483372  0.73329993  0.30956433     0.88000
C1455       C  0.24211509  0.70736534  0.27794351     0.88000
C1456       C  0.24506809  0.68492114  0.33709973     0.88200
O1457       O  0.25210779  0.91347630  0.80336099    -0.74100
O1458       O  0.16264940  0.95773169  0.80681408    -0.74100
O1459       O  0.20675743  0.94627015  0.78329409    -0.74200
O1460       O  0.20759218  0.91902947  0.82671787    -0.74200
O1461       O  0.22463551  0.99568968  0.83204666    -0.74200
O1462       O  0.22368270  0.02394779  0.78723413    -0.74100
O1463       O  0.18075233  0.03406222  0.81152790    -0.74100
O1464       O  0.26734969  0.99148214  0.80794902    -0.74200
Ni1465     Ni  0.20652438  0.93142499  0.80491077     1.25400
Ni1466     Ni  0.22450855  0.01411680  0.80989766     1.25400
C1467       C  0.27454259  0.94631013  0.80508805     0.88100
C1468       C  0.15722846  0.00435116  0.80944653     0.88000
C1469       C  0.21556343  0.98831342  0.77790428     0.88000
C1470       C  0.21753222  0.95119225  0.83655064     0.88200
O1471       O  0.20080298  0.56561688  0.68328270    -0.74100
O1472       O  0.28886072  0.01256676  0.68100808    -0.74100
O1473       O  0.24584964  0.55867258  0.66015835    -0.74200
O1474       O  0.24529254  0.02599421  0.70484847    -0.74200
O1475       O  0.22843004  0.94777366  0.70200835    -0.74200
O1476       O  0.22720424  0.96845101  0.65686374    -0.74100
O1477       O  0.27142716  0.93485634  0.67770595    -0.74100
O1478       O  0.18414985  0.97630298  0.68099249    -0.74200
Ni1479     Ni  0.24651426  0.54828077  0.68201756     1.25400
Ni1480     Ni  0.22737007  0.95397410  0.67926109     1.25400
C1481       C  0.17859743  0.53248511  0.68141715     0.88100
C1482       C  0.29460668  0.96596681  0.67862478     0.88000
C1483       C  0.23781317  0.52454598  0.65060655     0.88000
C1484       C  0.23644527  0.98473983  0.71082394     0.88200
O1485       O  0.43466052  0.93445890  0.80423732    -0.74100
O1486       O  0.52323266  0.88746351  0.80675392    -0.74100
O1487       O  0.48039671  0.90318806  0.78368179    -0.74200
O1488       O  0.47812935  0.92383447  0.82739822    -0.74200
O1489       O  0.45936503  0.84731811  0.83140891    -0.74200
O1490       O  0.46302354  0.82533417  0.78641642    -0.74100
O1491       O  0.50389974  0.81108297  0.81056952    -0.74100
O1492       O  0.41783100  0.85632859  0.80729126    -0.74200
Ni1493     Ni  0.47979321  0.91498981  0.80543967     1.25400
Ni1494     Ni  0.46045524  0.83221438  0.80909183     1.25400
C1495       C  0.41167472  0.90218668  0.80514035     0.88100
C1496       C  0.52780737  0.84041861  0.80862572     0.88000
C1497       C  0.47204217  0.86186894  0.77763315     0.88000
C1498       C  0.46786215  0.89029538  0.83670721     0.88200
O1499       O  0.51631754  0.78452209  0.68275443    -0.74100
O1500       O  0.42753813  0.83035758  0.67976856    -0.74100
O1501       O  0.47411738  0.79657637  0.65920982    -0.74200
O1502       O  0.46964953  0.81378660  0.70320685    -0.74200
O1503       O  0.48761969  0.89153706  0.70107915    -0.74200
O1504       O  0.49077817  0.87491002  0.65592576    -0.74100
O1505       O  0.44604016  0.90797611  0.67748937    -0.74100
O1506       O  0.53275235  0.86300516  0.67981206    -0.74200
Ni1507     Ni  0.47118435  0.80355397  0.68127841     1.25400
Ni1508     Ni  0.48985087  0.88717072  0.67842073     1.25400
C1509       C  0.53909734  0.81714642  0.68199714     0.88100
C1510       C  0.42247833  0.87755345  0.67875920     0.88000
C1511       C  0.48381681  0.83175242  0.65032494     0.88000
C1512       C  0.47824861  0.85457541  0.70956810     0.88200
O1513       O  0.69784232  0.80068507  0.68255957    -0.74100
O1514       O  0.78656347  0.75291542  0.68360432    -0.74100
O1515       O  0.74664895  0.78931460  0.66150366    -0.74200
O1516       O  0.73871492  0.76977563  0.70496680    -0.74200
O1517       O  0.72198886  0.69176113  0.70153601    -0.74200
O1518       O  0.72843585  0.71327987  0.65642482    -0.74100
O1519       O  0.76833443  0.67649927  0.67898826    -0.74100
O1520       O  0.68204670  0.72245039  0.67881143    -0.74200
Ni1521     Ni  0.74314509  0.78082932  0.68330664     1.25400
Ni1522     Ni  0.72473036  0.69810046  0.67877933     1.25400
C1523       C  0.67526135  0.76836318  0.68037002     0.88100
C1524       C  0.79183699  0.70608479  0.68143836     0.88000
C1525       C  0.73808534  0.75635575  0.65164941     0.88000
C1526       C  0.72851597  0.72886104  0.71060088     0.88200
O1527       O  0.74779215  0.65416804  0.80314741    -0.74100
O1528       O  0.65986744  0.70386275  0.80775418    -0.74100
O1529       O  0.70228571  0.68933711  0.78371048    -0.74200
O1530       O  0.70463471  0.66301036  0.82706400    -0.74200
O1531       O  0.72358093  0.73887950  0.83213270    -0.74200
O1532       O  0.72206712  0.76554181  0.78733663    -0.74100
O1533       O  0.68013006  0.77931238  0.81186560    -0.74100
O1534       O  0.76549033  0.73104350  0.80777396    -0.74200
Ni1535     Ni  0.70282671  0.67494562  0.80530208     1.25400
Ni1536     Ni  0.72330336  0.75653457  0.80996723     1.25400
C1537       C  0.77117333  0.68547602  0.80473329     0.88100
C1538       C  0.65578358  0.75077701  0.81036453     0.88000
C1539       C  0.71283014  0.73019642  0.77815823     0.88000
C1540       C  0.71541549  0.69493355  0.83674795     0.88200
O1541       O  0.01857954  0.53546966  0.68167213    -0.77300
O1542       O  0.92802992  0.57416214  0.68018914    -0.74100
O1543       O  0.97448893  0.54626519  0.65877291    -0.74200
O1544       O  0.97190631  0.55769309  0.70294621    -0.74200
O1545       O  0.98660811  0.63742425  0.70162490    -0.74200
O1546       O  0.98864076  0.62598195  0.65616670    -0.74100
O1547       O  0.94405263  0.65304615  0.67832056    -0.74100
O1548       O  0.03183201  0.61536625  0.67951343    -0.74200
Ni1549     Ni  0.97263874  0.55054998  0.68091799     1.25400
Ni1550     Ni  0.98824670  0.63579492  0.67881124     1.25400
C1551       C  0.04017920  0.57000285  0.68091405     0.88100
C1552       C  0.92143401  0.62100721  0.67936770     0.88000
C1553       C  0.98252340  0.58302847  0.65016792     0.88000
C1554       C  0.97928041  0.59837889  0.70967301     0.88200
O1555       O  0.93089864  0.67344852  0.80300523    -0.74100
O1556       O  0.02041284  0.63028256  0.80561633    -0.74100
O1557       O  0.97649112  0.64204989  0.78250380    -0.74200
O1558       O  0.97549014  0.66713995  0.82593593    -0.74200
O1559       O  0.95925275  0.59000688  0.83114632    -0.74200
O1560       O  0.95951848  0.56412572  0.78611772    -0.74100
O1561       O  0.00259614  0.55332296  0.80969572    -0.74100
O1562       O  0.91567867  0.59556295  0.80772244    -0.74200
Ni1563     Ni  0.97646779  0.65593801  0.80412344     1.25400
Ni1564     Ni  0.95874287  0.57291811  0.80885060     1.25400
C1565       C  0.90843218  0.64068571  0.80489692     0.88100
C1566       C  0.02599867  0.58377945  0.80816469     0.88000
C1567       C  0.96738598  0.60044201  0.77697590     0.88000
C1568       C  0.96728081  0.63391682  0.83583904     0.88200
O1569       O  0.70427373  0.78553437  0.55440282    -0.74100
O1570       O  0.79441741  0.82660100  0.55746723    -0.74100
O1571       O  0.74791406  0.79149704  0.57765428    -0.74200
O1572       O  0.75116880  0.81501188  0.53412283    -0.74200
O1573       O  0.73578976  0.89379684  0.53746708    -0.74200
O1574       O  0.73174237  0.86923786  0.58235047    -0.74100
O1575       O  0.77730443  0.90400600  0.56176276    -0.74100
O1576       O  0.68987088  0.86430760  0.55836752    -0.74200
Ni1577     Ni  0.75010385  0.80191219  0.55578370     1.25400
Ni1578     Ni  0.73321296  0.88568231  0.56014194     1.25400
C1579       C  0.68213825  0.81902573  0.55601612     0.88100
C1580       C  0.80043172  0.87302394  0.56006493     0.88000
C1581       C  0.73858009  0.82520565  0.58721762     0.88000
C1582       C  0.74352891  0.85698512  0.52843655     0.88200
O1583       O  0.78915307  0.94264437  0.43424775    -0.74100
O1584       O  0.69995408  0.89619327  0.43236593    -0.74100
O1585       O  0.74390962  0.91194017  0.45525336    -0.74200
O1586       O  0.74456838  0.93246486  0.41152504    -0.74200
O1587       O  0.76259001  0.85564983  0.40713370    -0.74200
O1588       O  0.76100251  0.83380004  0.45211352    -0.74100
O1589       O  0.71890125  0.81967430  0.42836817    -0.74100
O1590       O  0.80529265  0.86415763  0.43078172    -0.74200
Ni1591     Ni  0.74368680  0.92357482  0.43346425     1.25400
Ni1592     Ni  0.76248024  0.84053468  0.42943859     1.25400
C1593       C  0.81184769  0.90983749  0.43304577     0.88100
C1594       C  0.69503719  0.84928340  0.43013594     0.88000
C1595       C  0.75289273  0.87068538  0.46102843     0.88000
C1596       C  0.75420151  0.89877756  0.40201485     0.88200
O1597       O  0.97087267  0.91527987  0.43082830    -0.74100
O1598       O  0.06104995  0.95746762  0.43090402    -0.74100
O1599       O  0.01374135  0.94392683  0.45266960    -0.74200
O1600       O  0.01892671  0.92279266  0.40917306    -0.74200
O1601       O  0.00367440  0.00053510  0.40424069    -0.74200
O1602       O  0.99789005  0.02227099  0.44952787    -0.74100
O1603       O  0.04434859  0.03505708  0.42698196    -0.74100
O1604       O  0.95701398  0.99416794  0.42673179    -0.74200
Ni1605     Ni  0.01679002  0.93216637  0.43100617     1.25400
Ni1606     Ni  0.00031815  0.01590428  0.42668785     1.25400
C1607       C  0.94905980  0.94889169  0.42869938     0.88100
C1608       C  0.06721943  0.00420630  0.42923009     0.88000
C1609       C  0.00435247  0.98508792  0.45852649     0.88000
C1610       C  0.01181081  0.95662373  0.39941379     0.88200
O1611       O  0.01892494  0.57325708  0.55319490    -0.74100
O1612       O  0.93468922  0.00581556  0.55619520    -0.74100
O1613       O  0.97116307  0.56518142  0.57515357    -0.74200
O1614       O  0.97850261  0.02287685  0.53284659    -0.74200
O1615       O  0.99721318  0.94567593  0.53505852    -0.74200
O1616       O  0.99607316  0.96203305  0.58035061    -0.74100
O1617       O  0.95332930  0.92839575  0.55847335    -0.74100
O1618       O  0.04011433  0.97416903  0.55677529    -0.74200
Ni1619     Ni  0.97305812  0.55678405  0.55311380     1.25400
Ni1620     Ni  0.99717255  0.94970424  0.55780545     1.25400
C1621       C  0.04076996  0.53980621  0.55539621     0.88100
C1622       C  0.92967241  0.95861064  0.55732844     0.88000
C1623       C  0.98858765  0.00525805  0.58587176     0.88000
C1624       C  0.98861917  0.98272505  0.52649707     0.88200
O1625       O  0.29209280  0.67641491  0.43341143    -0.74100
O1626       O  0.20263455  0.63334602  0.43101111    -0.74100
O1627       O  0.24529438  0.65147107  0.45416128    -0.74200
O1628       O  0.24900189  0.66380341  0.41024631    -0.74200
O1629       O  0.26485717  0.58479878  0.40749913    -0.74200
O1630       O  0.26119788  0.57218574  0.45279562    -0.74100
O1631       O  0.21987237  0.55523309  0.42890837    -0.74100
O1632       O  0.30709586  0.59721831  0.43124669    -0.74200
Ni1633     Ni  0.24661106  0.65902227  0.43226329     1.25400
Ni1634     Ni  0.26384050  0.57449473  0.43003536     1.25400
C1635       C  0.31445630  0.64306464  0.43272882     0.88100
C1636       C  0.19666174  0.58645503  0.42958965     0.88000
C1637       C  0.25294255  0.61095517  0.46081102     0.88000
C1638       C  0.25758608  0.62733647  0.40161419     0.88200
O1639       O  0.20144003  0.54659592  0.55450420    -0.74100
O1640       O  0.29149117  0.58919121  0.55470511    -0.74100
O1641       O  0.24805159  0.55442541  0.57631855    -0.74200
O1642       O  0.24535925  0.57553426  0.53289499    -0.74200
O1643       O  0.22997011  0.65447257  0.53630607    -0.74200
O1644       O  0.23159498  0.63184254  0.58128484    -0.74100
O1645       O  0.27418209  0.66633299  0.55924206    -0.74100
O1646       O  0.18691849  0.62528326  0.55855708    -0.74200
Ni1647     Ni  0.24724119  0.56368474  0.55449180     1.25400
Ni1648     Ni  0.23019342  0.64734070  0.55901969     1.25400
C1649       C  0.17924898  0.57992658  0.55637664     0.88100
C1650       C  0.29737593  0.63583805  0.55689170     0.88000
C1651       C  0.23952956  0.58810804  0.58604951     0.88000
C1652       C  0.23679396  0.61719006  0.52731590     0.88200
O1653       O  0.52176816  0.81480102  0.55353883    -0.74100
O1654       O  0.43201392  0.77176202  0.55375264    -0.74100
O1655       O  0.47399657  0.80720378  0.57536383    -0.74200
O1656       O  0.47915262  0.78455604  0.53180910    -0.74200
O1657       O  0.49523154  0.70630061  0.53545512    -0.74200
O1658       O  0.48933256  0.72959349  0.58043552    -0.74100
O1659       O  0.44878607  0.69430123  0.55792065    -0.74100
O1660       O  0.53624560  0.73615976  0.55791121    -0.74200
Ni1661     Ni  0.47610110  0.79730182  0.55349187     1.25400
Ni1662     Ni  0.49288317  0.71373623  0.55812927     1.25400
C1663       C  0.54377125  0.78150974  0.55555097     0.88100
C1664       C  0.42587783  0.72514663  0.55566253     0.88000
C1665       C  0.48081418  0.77335020  0.58518806     0.88000
C1666       C  0.48821249  0.74273628  0.52629812     0.88200
O1667       O  0.47534756  0.65847794  0.43479077    -0.74100
O1668       O  0.56334557  0.70818502  0.43138281    -0.74100
O1669       O  0.51933098  0.69612754  0.45463804    -0.74200
O1670       O  0.52009697  0.66536278  0.41148891    -0.74200
O1671       O  0.50008543  0.73976479  0.40563418    -0.74200
O1672       O  0.50127029  0.77276047  0.44999819    -0.74100
O1673       O  0.54363965  0.78275891  0.42557399    -0.74100
O1674       O  0.45771911  0.73501971  0.42998435    -0.74200
Ni1675     Ni  0.52031722  0.67941284  0.43320081     1.25400
Ni1676     Ni  0.50016089  0.76037697  0.42754643     1.25400
C1677       C  0.45189993  0.68956458  0.43320787     0.88100
C1678       C  0.56779973  0.75461830  0.42828821     0.88000
C1679       C  0.51008566  0.73852276  0.45960456     0.88000
C1680       C  0.50879336  0.69554593  0.40146515     0.88200
O1681       O  0.26280590  0.90832778  0.93308708    -0.74100
O1682       O  0.17181783  0.87065329  0.93214727    -0.74100
O1683       O  0.21838508  0.87665759  0.95416166    -0.74200
O1684       O  0.21570344  0.90801702  0.91118139    -0.74200
O1685       O  0.22982234  0.83099020  0.90442150    -0.74200
O1686       O  0.23278398  0.79849645  0.94900226    -0.74100
O1687       O  0.18733564  0.79322337  0.92633784    -0.74100
O1688       O  0.27549554  0.83008310  0.92706717    -0.74200
Ni1689     Ni  0.21660020  0.89364260  0.93280594     1.25400
Ni1690     Ni  0.23175275  0.81038544  0.92642608     1.25400
C1691       C  0.28418214  0.87423795  0.93037746     0.88100
C1692       C  0.16504967  0.82457818  0.92948213     0.88000
C1693       C  0.22659709  0.83371047  0.95892591     0.88000
C1694       C  0.22273960  0.87612990  0.90059367     0.88200
O1695       O  0.20267055  0.74853067  0.05370735    -0.74100
O1696       O  0.29168641  0.79632366  0.05543993    -0.74100
O1697       O  0.24740753  0.75865309  0.07629130    -0.74200
O1698       O  0.24741327  0.78082708  0.03244170    -0.74200
O1699       O  0.22905918  0.85789792  0.03603123    -0.74200
O1700       O  0.23002549  0.83594530  0.08092906    -0.74100
O1701       O  0.27235111  0.87260859  0.05932912    -0.74100
O1702       O  0.18638165  0.82649915  0.05796825    -0.74200
Ni1703     Ni  0.24806950  0.76831206  0.05430205     1.25400
Ni1704     Ni  0.22894730  0.85098226  0.05868805     1.25400
C1705       C  0.17988491  0.78068070  0.05597878     0.88100
C1706       C  0.29634606  0.84325244  0.05784106     0.88000
C1707       C  0.23829719  0.79259512  0.08583554     0.88000
C1708       C  0.23743155  0.82187228  0.02682676     0.88200
O1709       O  0.76072407  0.65908495  0.93338966    -0.74100
O1710       O  0.67094103  0.61462009  0.93203343    -0.74100
O1711       O  0.71648932  0.62503459  0.95430000    -0.74200
O1712       O  0.71422910  0.65461439  0.91123813    -0.74200
O1713       O  0.73071490  0.57837819  0.90484685    -0.74200
O1714       O  0.73415792  0.54809389  0.94946101    -0.74100
O1715       O  0.68899909  0.53848780  0.92663558    -0.74100
O1716       O  0.77588979  0.58192846  0.92745171    -0.74200
Ni1717     Ni  0.71493363  0.64104605  0.93289699     1.25400
Ni1718     Ni  0.73288878  0.55891513  0.92685734     1.25400
C1719       C  0.78323333  0.62660762  0.93078316     0.88100
C1720       C  0.66546281  0.56808930  0.92937603     0.88000
C1721       C  0.72626145  0.58307194  0.95918179     0.88000
C1722       C  0.72249369  0.62281707  0.90083482     0.88200
O1723       O  0.70260378  0.50597807  0.05259425    -0.74100
O1724       O  0.79171839  0.55096677  0.05553696    -0.74100
O1725       O  0.74624872  0.51373702  0.07576634    -0.74200
O1726       O  0.74863938  0.53771254  0.03213605    -0.74200
O1727       O  0.73042547  0.61501747  0.03577104    -0.74200
O1728       O  0.72939234  0.59088325  0.08067426    -0.74100
O1729       O  0.77313543  0.62781212  0.05950116    -0.74100
O1730       O  0.68664296  0.58386763  0.05718266    -0.74200
Ni1731     Ni  0.74804246  0.52438252  0.05386923     1.25400
Ni1732     Ni  0.72945314  0.60724190  0.05844118     1.25400
C1733       C  0.67990556  0.53843604  0.05455207     0.88100
C1734       C  0.79678872  0.59770092  0.05794165     0.88000
C1735       C  0.73672628  0.54693982  0.08548573     0.88000
C1736       C  0.73884881  0.57889208  0.02660051     0.88200
O1737       O  0.44402746  0.87986416  0.93552840    -0.74100
O1738       O  0.53251149  0.92793409  0.93114552    -0.74100
O1739       O  0.49175439  0.90601433  0.95533886    -0.74200
O1740       O  0.48544725  0.89647846  0.91133997    -0.74200
O1741       O  0.46565541  0.97334358  0.90978090    -0.74200
O1742       O  0.47482218  0.98477617  0.95490302    -0.74100
O1743       O  0.51310796  0.00490496  0.92949345    -0.74100
O1744       O  0.42731894  0.95868885  0.93515863    -0.74200
Ni1745     Ni  0.48919765  0.89983931  0.93335168     1.25400
Ni1746     Ni  0.46973411  0.98330770  0.93228519     1.25400
C1747       C  0.42110122  0.91241635  0.93618301     0.88100
C1748       C  0.53715270  0.97515485  0.92964085     0.88000
C1749       C  0.48378147  0.94583658  0.96249880     0.88000
C1750       C  0.47305772  0.93136815  0.90332638     0.88200
O1751       O  0.51965786  0.52837566  0.05524606    -0.74100
O1752       O  0.42947928  0.97955019  0.05648871    -0.74100
O1753       O  0.47251729  0.52113175  0.07753845    -0.74200
O1754       O  0.47683777  0.99128149  0.03460619    -0.74200
O1755       O  0.49518249  0.91485728  0.03941220    -0.74200
O1756       O  0.48706698  0.94464103  0.08404789    -0.74100
O1757       O  0.44800997  0.90354925  0.06165535    -0.74100
O1758       O  0.53424892  0.95042237  0.06185354    -0.74200
Ni1759     Ni  0.47407325  0.51026922  0.05568079     1.25400
Ni1760     Ni  0.49157508  0.92554139  0.06200440     1.25400
C1761       C  0.54213038  0.49576159  0.05714198     0.88100
C1762       C  0.42456390  0.93267801  0.05865287     0.88000
C1763       C  0.47839127  0.98901630  0.08813247     0.88000
C1764       C  0.48825539  0.95000442  0.02974993     0.88200
O1765       O  0.94261171  0.64509050  0.93348413    -0.74100
O1766       O  0.03170410  0.69039276  0.92886564    -0.74100
O1767       O  0.99087216  0.67100733  0.95313561    -0.74200
O1768       O  0.98401396  0.65912924  0.90913172    -0.74200
O1769       O  0.96648351  0.73728446  0.90720677    -0.74200
O1770       O  0.97335422  0.74947205  0.95243551    -0.74100
O1771       O  0.01321413  0.76801065  0.92738195    -0.74100
O1772       O  0.92666704  0.72399697  0.93205940    -0.74200
Ni1773     Ni  0.98801877  0.66363404  0.93117257     1.25400
Ni1774     Ni  0.96947253  0.74755511  0.92971457     1.25400
C1775       C  0.91988453  0.67804876  0.93352128     0.88100
C1776       C  0.03683367  0.73755668  0.92752702     0.88000
C1777       C  0.98297266  0.71115370  0.96014963     0.88000
C1778       C  0.97328853  0.69490548  0.90091540     0.88200
O1779       O  0.02094412  0.77402357  0.05239250    -0.74100
O1780       O  0.93145342  0.73232058  0.05683252    -0.74100
O1781       O  0.97774004  0.76843434  0.07631055    -0.74200
O1782       O  0.97370260  0.74264949  0.03283481    -0.74200
O1783       O  0.98910140  0.66385743  0.03618659    -0.74200
O1784       O  0.99506982  0.69136980  0.08088919    -0.74100
O1785       O  0.94863664  0.65541472  0.06137570    -0.74100
O1786       O  0.03602857  0.69507574  0.05573744    -0.74200
Ni1787     Ni  0.97537882  0.75710207  0.05446522     1.25400
Ni1788     Ni  0.99274588  0.67358955  0.05872963     1.25400
C1789       C  0.04315121  0.74054564  0.05330878     0.88100
C1790       C  0.92542197  0.68614262  0.05959906     0.88000
C1791       C  0.98755239  0.73534690  0.08581147     0.88000
C1792       C  0.98008609  0.69973290  0.02724948     0.88200
C1793       C  0.00423909  0.67516427  0.00170004    -0.11900
C1794       C  0.97774303  0.69434473  0.01008492     0.05100
C1795       C  0.95282682  0.71922293  0.00193777    -0.07200
C1796       C  0.95631762  0.72770106  0.98574401    -0.08000
C1797       C  0.98358300  0.71055645  0.97745389    -0.02500
C1798       C  0.00787978  0.68390749  0.98552775     0.04300
N1799       N  0.03707370  0.66782644  0.97764538     0.66800
H1800       H  0.02327592  0.65625261  0.00794159     0.15700
H1801       H  0.93689501  0.74553490  0.97942482     0.15400
N1802       N  0.92351150  0.73456588  0.00990650     0.74500
O1803       O  0.05092340  0.69593322  0.96777792    -0.38900
O1804       O  0.05133100  0.62874542  0.98199290    -0.38900
O1805       O  0.90748950  0.77116001  0.00492397    -0.39600
O1806       O  0.91163283  0.70825078  0.02082504    -0.39700
C1807       C  0.49727221  0.98768860  0.98740644    -0.11900
C1808       C  0.48537079  0.94561532  0.97977389     0.05100
C1809       C  0.47827627  0.90204424  0.98860643    -0.07200
C1810       C  0.48246211  0.90230172  0.00494322    -0.08000
C1811       C  0.49289597  0.94525590  0.01262111    -0.02500
C1812       C  0.50184647  0.98766271  0.00366472     0.04300
N1813       N  0.51629655  0.03046791  0.01092004     0.66800
H1814       H  0.50419664  0.02011517  0.98059381     0.15700
H1815       H  0.47539789  0.87000094  0.01175670     0.15400
N1816       N  0.46506244  0.85830838  0.98136065     0.74500
O1817       O  0.53782712  0.02483512  0.02115786    -0.38900
O1818       O  0.50004168  0.58166207  0.00485551    -0.38900
O1819       O  0.47418173  0.81569902  0.98568338    -0.39600
O1820       O  0.44128466  0.86190925  0.97225596    -0.39700
C1821       C  0.62263473  0.56337681  0.05077980    -0.11900
C1822       C  0.64505849  0.52535037  0.05410099     0.05100
C1823       C  0.63334813  0.47778463  0.05799405    -0.07200
C1824       C  0.59988296  0.46958320  0.05872420    -0.08000
C1825       C  0.57727792  0.50811358  0.05603273    -0.02500
C1826       C  0.58913785  0.55558192  0.05185051     0.04300
N1827       N  0.56791056  0.59656285  0.04887742     0.66800
H1828       H  0.63115668  0.60030007  0.04775124     0.15700
H1829       H  0.59117726  0.93504003  0.06475359     0.15400
N1830       N  0.65428975  0.94188604  0.06452318     0.74500
O1831       O  0.55105616  0.61454441  0.06000472    -0.38900
O1832       O  0.57122395  0.62113837  0.03632453    -0.38900
O1833       O  0.67272919  0.94961320  0.07599892    -0.39600
O1834       O  0.65155910  0.89831433  0.05912460    -0.39700
C1835       C  0.83421608  0.66933807  0.05438568    -0.11900
C1836       C  0.82991146  0.61920905  0.05878234     0.05100
C1837       C  0.85680921  0.59240860  0.06425390    -0.07200
C1838       C  0.88724679  0.61569370  0.06469128    -0.08000
C1839       C  0.89170092  0.66590365  0.06021812    -0.02500
C1840       C  0.86439881  0.69308408  0.05524028     0.04300
N1841       N  0.86659113  0.74450995  0.05091251     0.66800
H1842       H  0.81373984  0.69071480  0.05030395     0.15700
H1843       H  0.90759591  0.59416929  0.06881877     0.15400
N1844       N  0.85356692  0.54247006  0.07000400     0.74500
O1845       O  0.85458637  0.75893280  0.03812775    -0.38900
O1846       O  0.87402959  0.77649472  0.06114643    -0.38900
O1847       O  0.87467867  0.51021674  0.06647386    -0.39600
O1848       O  0.83247390  0.53246798  0.08040417    -0.39700
C1849       C  0.82772228  0.68713251  0.93643407    -0.11900
C1850       C  0.81836163  0.63924111  0.93183251     0.05100
C1851       C  0.84301814  0.60327274  0.92880259    -0.07200
C1852       C  0.87571559  0.61598139  0.93020635    -0.08000
C1853       C  0.88504098  0.66405704  0.93452124    -0.02500
C1854       C  0.86050728  0.69976351  0.93797977     0.04300
N1855       N  0.86830365  0.74891880  0.94330630     0.66800
H1856       H  0.80946009  0.71493159  0.93912070     0.15700
H1857       H  0.89394964  0.58828036  0.92734261     0.15400
N1858       N  0.83555835  0.55371750  0.92388724     0.74500
O1859       O  0.85605780  0.78632934  0.93668980    -0.38900
O1860       O  0.88431661  0.75480815  0.95571897    -0.38900
O1861       O  0.83474962  0.54339364  0.90940698    -0.39600
O1862       O  0.83469182  0.51906160  0.93386973    -0.39700
C1863       C  0.62882074  0.49379028  0.92931317    -0.11900
C1864       C  0.63209567  0.54615635  0.92950416     0.05100
C1865       C  0.60367863  0.57511218  0.92935927    -0.07200
C1866       C  0.57326850  0.55176716  0.92885038    -0.08000
C1867       C  0.56996323  0.49935699  0.92867399    -0.02500
C1868       C  0.59843685  0.47033395  0.92879745     0.04300
N1869       N  0.59652558  0.91876456  0.91993484     0.66800
H1870       H  0.65015639  0.47035937  0.92937668     0.15700
H1871       H  0.55198748  0.57532029  0.92887716     0.15400
N1872       N  0.60508822  0.62823799  0.92971396     0.74500
O1873       O  0.57810875  0.90604649  0.90889297    -0.38900
O1874       O  0.61699479  0.88792259  0.92493280    -0.38900
O1875       O  0.59773819  0.65278808  0.91764440    -0.39600
O1876       O  0.60874843  0.65052987  0.94265453    -0.39700
C1877       C  0.70752424  0.60637344  0.98589936    -0.11900
C1878       C  0.72871494  0.57791132  0.97638781     0.05100
C1879       C  0.75389866  0.55137536  0.98348038    -0.07200
C1880       C  0.75731355  0.55343777  0.99983840    -0.08000
C1881       C  0.73612623  0.58209553  0.00934242    -0.02500
C1882       C  0.71084996  0.60853454  0.00221892     0.04300
N1883       N  0.68737701  0.63557414  0.01137321     0.66800
H1884       H  0.68792411  0.62696233  0.98060359     0.15700
H1885       H  0.77689839  0.53284019  0.00513836     0.15400
N1886       N  0.77731619  0.52488649  0.97419834     0.74500
O1887       O  0.68174293  0.68063765  0.00829136    -0.38900
O1888       O  0.66881821  0.61259756  0.02075993    -0.38900
O1889       O  0.80146525  0.54754636  0.96846671    -0.39600
O1890       O  0.77526819  0.47825960  0.97277319    -0.39700
C1891       C  0.13364059  0.73112827  0.04575315    -0.11900
C1892       C  0.14516293  0.76703493  0.05623466     0.05100
C1893       C  0.12262518  0.79526991  0.06535199    -0.07200
C1894       C  0.08935180  0.78898085  0.06306825    -0.08000
C1895       C  0.07784164  0.75346107  0.05251789    -0.02500
C1896       C  0.10022528  0.72402054  0.04380173     0.04300
N1897       N  0.08933027  0.68834986  0.03246032     0.66800
H1898       H  0.15063591  0.71018084  0.03852036     0.15700
H1899       H  0.07229312  0.80961926  0.07036628     0.15400
N1900       N  0.13308050  0.82873275  0.07750168     0.74500
O1901       O  0.06703661  0.69974843  0.02313647    -0.38900
O1902       O  0.10440961  0.64791274  0.03046151    -0.38900
O1903       O  0.11771701  0.86853954  0.08019144    -0.39600
O1904       O  0.15492223  0.81557828  0.08687546    -0.39700
C1905       C  0.35611198  0.83981385  0.05232136    -0.11900
C1906       C  0.32942626  0.86552877  0.05864354     0.05100
C1907       C  0.33449918  0.91411725  0.06487092    -0.07200
C1908       C  0.36527982  0.93599604  0.06423615    -0.08000
C1909       C  0.39171454  0.91053231  0.05773041    -0.02500
C1910       C  0.38696247  0.86185228  0.05167169     0.04300
N1911       N  0.41293743  0.83513964  0.04416951     0.66800
H1912       H  0.35282687  0.80307989  0.04730658     0.15700
H1913       H  0.36867708  0.97267076  0.06929269     0.15400
N1914       N  0.30897462  0.94137531  0.07245799     0.74500
O1915       O  0.41856455  0.79056762  0.04789216    -0.38900
O1916       O  0.42786884  0.85414779  0.03261982    -0.38900
O1917       O  0.30771269  0.94315713  0.08728511    -0.39600
O1918       O  0.29266034  0.97203711  0.06461558    -0.39700
C1919       C  0.37588026  0.85765633  0.92829693    -0.11900
C1920       C  0.38648374  0.89817197  0.93716320     0.05100
C1921       C  0.36318256  0.93048816  0.94415848    -0.07200
C1922       C  0.33011618  0.92320679  0.94121491    -0.08000
C1923       C  0.31952119  0.88395904  0.93169700    -0.02500
C1924       C  0.34296366  0.85077657  0.92513084     0.04300
N1925       N  0.33415847  0.81158144  0.91449429     0.66800
H1926       H  0.39348443  0.83310135  0.92278743     0.15700
H1927       H  0.31246623  0.94753971  0.94682276     0.15400
N1928       N  0.37265620  0.97016758  0.95452303     0.74500
O1929       O  0.31751076  0.82132703  0.90253891    -0.38900
O1930       O  0.34732131  0.76934248  0.91557185    -0.38900
O1931       O  0.35648188  0.01001231  0.95513232    -0.39600
O1932       O  0.39506723  0.96357787  0.96426037    -0.39700
C1933       C  0.10801576  0.82575785  0.92038843    -0.11900
C1934       C  0.13149224  0.80518949  0.93013557     0.05100
C1935       C  0.12422345  0.76079513  0.93847607    -0.07200
C1936       C  0.09400813  0.73759747  0.93653107    -0.08000
C1937       C  0.07015020  0.75871999  0.92708356    -0.02500
C1938       C  0.07750955  0.80328039  0.91885729     0.04300
N1939       N  0.05500191  0.82477026  0.90818456     0.66800
H1940       H  0.11370666  0.85867402  0.91355277     0.15700
H1941       H  0.08855859  0.70402907  0.94304748     0.15400
N1942       N  0.14676718  0.73986912  0.94940327     0.74500
O1943       O  0.03342227  0.85397853  0.91336229    -0.38900
O1944       O  0.06148586  0.82427767  0.89363822    -0.38900
O1945       O  0.16300744  0.76798817  0.95822052    -0.39600
O1946       O  0.14730132  0.69352926  0.95179232    -0.39700
C1947       C  0.21422640  0.86413112  0.98588779    -0.11900
C1948       C  0.22892865  0.82750817  0.97623599     0.05100
C1949       C  0.24657457  0.78904827  0.98342712    -0.07200
C1950       C  0.24902502  0.78823535  0.99988958    -0.08000
C1951       C  0.23494660  0.82570757  0.00945320    -0.02500
C1952       C  0.21731849  0.86386731  0.00220756     0.04300
N1953       N  0.20187276  0.90231421  0.01120332     0.66800
H1954       H  0.20024622  0.89394131  0.98075399     0.15700
H1955       H  0.26278066  0.75847615  0.00518410     0.15400
N1956       N  0.26317300  0.75178361  0.97432179     0.74500
O1957       O  0.21672607  0.94242660  0.01386113    -0.38900
O1958       O  0.17220266  0.89877834  0.01473268    -0.38900
O1959       O  0.28545069  0.76432902  0.96483022    -0.39600
O1960       O  0.25960496  0.70640812  0.97772242    -0.39700
C1961       C  0.51868038  0.71302409  0.50295686    -0.11900
C1962       C  0.49207141  0.73907724  0.50909715     0.05100
C1963       C  0.47306527  0.76869439  0.49895142    -0.07200
C1964       C  0.48135771  0.77169449  0.48296654    -0.08000
C1965       C  0.50764078  0.74498321  0.47678070    -0.02500
C1966       C  0.52706091  0.71621383  0.48698074     0.04300
N1967       N  0.55570587  0.69097718  0.48138114     0.66800
H1968       H  0.53407945  0.69217737  0.51078915     0.15700
H1969       H  0.46585821  0.79241710  0.47514830     0.15400
N1970       N  0.44463861  0.79447003  0.50454544     0.74500
O1971       O  0.57483076  0.71222251  0.47183347    -0.38900
O1972       O  0.56369532  0.64962245  0.48718170    -0.38900
O1973       O  0.43756130  0.83666054  0.49906575    -0.39600
O1974       O  0.42468324  0.77289943  0.51360338    -0.39700
C1975       C  0.33508858  0.70645136  0.56197034    -0.11900
C1976       C  0.33079485  0.65710872  0.55662658     0.05100
C1977       C  0.35790931  0.63157453  0.55045989    -0.07200
C1978       C  0.38821680  0.65523237  0.54987818    -0.08000
C1979       C  0.39240370  0.70465278  0.55517534    -0.02500
C1980       C  0.36519196  0.73054663  0.56114433     0.04300
N1981       N  0.36760807  0.78052554  0.56693130     0.66800
H1982       H  0.31470442  0.72716350  0.56674700     0.15700
H1983       H  0.40875338  0.63459481  0.54520460     0.15400
N1984       N  0.35508215  0.58210417  0.54444493     0.74500
O1985       O  0.37449842  0.81530804  0.55752406    -0.38900
O1986       O  0.35583844  0.79121441  0.58029822    -0.38900
O1987       O  0.35127212  0.57516120  0.52990021    -0.39600
O1988       O  0.36032109  0.54545899  0.55330263    -0.39700
C1989       C  0.37249259  0.61724899  0.43166886    -0.11900
C1990       C  0.34953347  0.65579860  0.43362494     0.05100
C1991       C  0.36086994  0.70421036  0.43679000    -0.07200
C1992       C  0.39423932  0.71310373  0.43745818    -0.08000
C1993       C  0.41722203  0.67494413  0.43486888    -0.02500
C1994       C  0.40593158  0.62600604  0.43242332     0.04300
N1995       N  0.42768678  0.58483762  0.43039499     0.66800
H1996       H  0.36451941  0.57944985  0.42956369     0.15700
H1997       H  0.40219677  0.75090825  0.43961303     0.15400
N1998       N  0.33909715  0.74505739  0.43911930     0.74500
O1999       O  0.44625740  0.57298505  0.44144461    -0.38900
O2000       O  0.42313418  0.55407816  0.41939425    -0.38900
O2001       O  0.33850110  0.76774740  0.45213751    -0.39600
O2002       O  0.32523611  0.76407991  0.42743790    -0.39700
C2003       C  0.25426444  0.65685051  0.50262796    -0.11900
C2004       C  0.23602773  0.62003159  0.51015119     0.05100
C2005       C  0.22435535  0.57885968  0.50143543    -0.07200
C2006       C  0.23245882  0.57439706  0.48547176    -0.08000
C2007       C  0.25115575  0.61077945  0.47800525    -0.02500
C2008       C  0.26229669  0.65242747  0.48664578     0.04300
N2009       N  0.28282064  0.68935818  0.47947063     0.66800
H2010       H  0.26426822  0.68719415  0.50944258     0.15700
H2011       H  0.22275380  0.54377745  0.47867444     0.15400
N2012       N  0.20406024  0.54166340  0.50866260     0.74500
O2013       O  0.28011611  0.73453966  0.48337573    -0.38900
O2014       O  0.30582128  0.67634439  0.47043862    -0.38900
O2015       O  0.18208700  0.55419984  0.51834821    -0.39600
O2016       O  0.20621045  0.49671869  0.50441176    -0.39700
C2017       C  0.09828142  0.51170116  0.55391419    -0.11900
C2018       C  0.07600896  0.55143001  0.55528379     0.05100
C2019       C  0.08813277  0.60014367  0.55666672    -0.07200
C2020       C  0.12164924  0.60799186  0.55682391    -0.08000
C2021       C  0.14398340  0.56815430  0.55592905    -0.02500
C2022       C  0.13182290  0.51942217  0.55438491     0.04300
N2023       N  0.16047738  0.96534435  0.55204224     0.66800
H2024       H  0.09737226  0.95800406  0.55057831     0.15700
H2025       H  0.13011018  0.64596603  0.55794786     0.15400
N2026       N  0.06694902  0.64199120  0.55840249     0.74500
O2027       O  0.17594496  0.95162211  0.56397988    -0.38900
O2028       O  0.16086552  0.93844013  0.53984882    -0.38900
O2029       O  0.05065458  0.64759095  0.57094843    -0.39600
O2030       O  0.06802712  0.67676881  0.54846400    -0.39700
C2031       C  0.10434264  0.57459815  0.42963416    -0.11900
C2032       C  0.10006470  0.52250338  0.42885587     0.05100
C2033       C  0.12781350  0.49210086  0.42827443    -0.07200
C2034       C  0.15867050  0.51401051  0.42818052    -0.08000
C2035       C  0.16297554  0.56619960  0.42891338    -0.02500
C2036       C  0.13513935  0.59657223  0.42956458     0.04300
N2037       N  0.13742580  0.64971513  0.42993782     0.66800
H2038       H  0.08348031  0.59901371  0.43013946     0.15700
H2039       H  0.17947478  0.48948571  0.42775033     0.15400
N2040       N  0.12670284  0.94846538  0.41968563     0.74500
O2041       O  0.14793806  0.67271549  0.41799439    -0.38900
O2042       O  0.12369011  0.67378579  0.44091041    -0.38900
O2043       O  0.13900347  0.93688433  0.40650566    -0.39600
O2044       O  0.11967076  0.91439559  0.42932805    -0.39700
C2045       C  0.00807896  0.94311142  0.48446017    -0.11900
C2046       C  0.00050018  0.98656586  0.47593385     0.05100
C2047       C  0.98838853  0.02802611  0.48422240    -0.07200
C2048       C  0.98401484  0.02528901  0.50056600    -0.08000
C2049       C  0.99136337  0.98160026  0.50905253    -0.02500
C2050       C  0.00339801  0.94005243  0.50072423     0.04300
N2051       N  0.01095813  0.89433691  0.50846127     0.66800
H2052       H  0.01731715  0.91031926  0.47847424     0.15700
H2053       H  0.96187229  0.56717108  0.50393810     0.15400
N2054       N  0.96857453  0.57914760  0.47337505     0.74500
O2055       O  0.98836125  0.86696422  0.51356389    -0.38900
O2056       O  0.03938283  0.87723036  0.50765365    -0.38900
O2057       O  0.93854727  0.58729982  0.47451575    -0.39600
O2058       O  0.98650284  0.61069144  0.46657042    -0.39700
C2059       C  0.85787241  0.96239243  0.42443833    -0.11900
C2060       C  0.84651515  0.92310331  0.43370158     0.05100
C2061       C  0.86911130  0.89091735  0.44095353    -0.07200
C2062       C  0.90244865  0.89836835  0.43846112    -0.08000
C2063       C  0.91389012  0.93739717  0.42904479    -0.02500
C2064       C  0.89113408  0.96934441  0.42172865     0.04300
N2065       N  0.90120813  0.00742079  0.41088246     0.66800
H2066       H  0.84070163  0.98573053  0.41835598     0.15700
H2067       H  0.91956908  0.87467582  0.44442978     0.15400
N2068       N  0.85863816  0.85117573  0.45112557     0.74500
O2069       O  0.92120143  0.99734302  0.39996936    -0.38900
O2070       O  0.88686869  0.04891160  0.41081645    -0.38900
O2071       O  0.87476953  0.81134474  0.45180123    -0.39600
O2072       O  0.83525847  0.85761307  0.46062824    -0.39700
C2073       C  0.65917677  0.77462788  0.43145601    -0.11900
C2074       C  0.66198579  0.82670830  0.42971123     0.05100
C2075       C  0.63352692  0.85453499  0.42747189    -0.07200
C2076       C  0.60344441  0.83014684  0.42689797    -0.08000
C2077       C  0.60073119  0.77786892  0.42834045    -0.02500
C2078       C  0.62925571  0.75017468  0.43068654     0.04300
N2079       N  0.62852420  0.69718677  0.43223212     0.66800
H2080       H  0.68054592  0.75214563  0.43333049     0.15700
H2081       H  0.58201556  0.85264748  0.42522060     0.15400
N2082       N  0.63466332  0.90731446  0.42542925     0.74500
O2083       O  0.62287304  0.67036433  0.42037097    -0.38900
O2084       O  0.63811678  0.67715105  0.44474570    -0.38900
O2085       O  0.64646804  0.92540934  0.41292723    -0.39600
O2086       O  0.62040700  0.93547485  0.43519661    -0.39700
C2087       C  0.62536267  0.84191088  0.56286813    -0.11900
C2088       C  0.64682743  0.80749598  0.55564658     0.05100
C2089       C  0.63360484  0.76582605  0.54785207    -0.07200
C2090       C  0.59985446  0.75972680  0.54758459    -0.08000
C2091       C  0.57869717  0.79358845  0.55509725    -0.02500
C2092       C  0.59167347  0.83520112  0.56286829     0.04300
N2093       N  0.57141140  0.86938620  0.57152310     0.66800
H2094       H  0.63489930  0.87382759  0.56909138     0.15700
H2095       H  0.59000279  0.72752488  0.54161031     0.15400
N2096       N  0.65358523  0.72985389  0.53989275     0.74500
O2097       O  0.55010768  0.85328679  0.58100125    -0.38900
O2098       O  0.57776842  0.91533026  0.57140101    -0.38900
O2099       O  0.67254912  0.70305652  0.54772689    -0.39600
O2100       O  0.64662128  0.71663531  0.52608351    -0.39700
C2101       C  0.87190077  0.96089969  0.56612773    -0.11900
C2102       C  0.89642372  0.93739537  0.55738722     0.05100
C2103       C  0.88963809  0.89112143  0.55000156    -0.07200
C2104       C  0.85884104  0.86923829  0.55182604    -0.08000
C2105       C  0.83414653  0.89301341  0.56045178    -0.02500
C2106       C  0.84116164  0.93924371  0.56778967     0.04300
N2107       N  0.81761935  0.96411326  0.57744460     0.66800
H2108       H  0.87688910  0.99565548  0.57212437     0.15700
H2109       H  0.85365852  0.83474541  0.54573174     0.15400
N2110       N  0.91305600  0.86736130  0.53984718     0.74500
O2111       O  0.81480469  0.95260474  0.59177120    -0.38900
O2112       O  0.80395089  0.00287976  0.57246280    -0.38900
O2113       O  0.91501572  0.82049729  0.53938176    -0.39600
O2114       O  0.92846710  0.89265750  0.52975033    -0.39700
C2115       C  0.75490866  0.90570176  0.50421676    -0.11900
C2116       C  0.74444222  0.86137511  0.51116276     0.05100
C2117       C  0.73785243  0.81964194  0.50148619    -0.07200
C2118       C  0.74228147  0.82272691  0.48522653    -0.08000
C2119       C  0.75302408  0.86678757  0.47827869    -0.02500
C2120       C  0.75977910  0.90874926  0.48789610     0.04300
N2121       N  0.77260818  0.95402859  0.48137152     0.66800
H2122       H  0.76077435  0.93736200  0.51157161     0.15700
H2123       H  0.73618675  0.79096237  0.47795450     0.15400
N2124       N  0.72502551  0.77450562  0.50788744     0.74500
O2125       O  0.76336177  0.99559960  0.48673042    -0.38900
O2126       O  0.79595577  0.95256018  0.47164742    -0.38900
O2127       O  0.69539894  0.76483477  0.50618877    -0.39600
O2128       O  0.74410579  0.74004303  0.51170498    -0.39700
C2129       C  0.95245290  0.63951709  0.88023500    -0.11900
C2130       C  0.96807485  0.68443032  0.88411400     0.05100
C2131       C  0.98290806  0.71258449  0.87210343    -0.07200
C2132       C  0.98262448  0.69436416  0.85665013    -0.08000
C2133       C  0.96751907  0.64889723  0.85270535    -0.02500
C2134       C  0.95204043  0.62155800  0.86473892     0.04300
N2135       N  0.93600569  0.57557166  0.86152895     0.66800
H2136       H  0.94129728  0.61731110  0.88945736     0.15700
H2137       H  0.99455606  0.71632920  0.84762091     0.15400
N2138       N  0.99984264  0.75804884  0.87538488     0.74500
O2139       O  0.95243761  0.53638310  0.85959920    -0.38900
O2140       O  0.90567469  0.57257009  0.86320140    -0.38900
O2141       O  0.02633446  0.76721018  0.86840853    -0.39600
O2142       O  0.98596251  0.79243192  0.88303308    -0.39700
C2143       C  0.96304225  0.59863411  0.62331661    -0.11900
C2144       C  0.98444055  0.57368566  0.63313514     0.05100
C2145       C  0.00222694  0.53249193  0.62722956    -0.07200
C2146       C  0.99810883  0.51713257  0.61160841    -0.08000
C2147       C  0.97672251  0.54203231  0.60169847    -0.02500
C2148       C  0.95841089  0.58274419  0.60776947     0.04300
N2149       N  0.93385155  0.60662545  0.59863899     0.66800
H2150       H  0.94821184  0.62846855  0.62810358     0.15700
H2151       H  0.95879323  0.95610046  0.60915640     0.15400
N2152       N  0.02496671  0.50651128  0.63688619     0.74500
O2153       O  0.91393266  0.58074942  0.59099933    -0.38900
O2154       O  0.92912921  0.65287393  0.59996409    -0.38900
O2155       O  0.02895321  0.46018444  0.63528639    -0.39600
O2156       O  0.94621642  0.93171754  0.63951587    -0.39700
C2157       C  0.96382383  0.63978336  0.73458185    -0.11900
C2158       C  0.97813376  0.59909792  0.72698815     0.05100
C2159       C  0.98674410  0.55648387  0.73586500    -0.07200
C2160       C  0.98054324  0.55561469  0.75213550    -0.08000
C2161       C  0.96656560  0.59665094  0.75971018    -0.02500
C2162       C  0.95744308  0.63865479  0.75075418     0.04300
N2163       N  0.94080877  0.67989754  0.75791946     0.66800
H2164       H  0.95607165  0.67162722  0.72779415     0.15700
H2165       H  0.98851979  0.52413684  0.75902300     0.15400
N2166       N  0.00319997  0.51496459  0.72868491     0.74500
O2167       O  0.94959176  0.72390882  0.75495861    -0.38900
O2168       O  0.91549634  0.67251299  0.76605520    -0.38900
O2169       O  0.02661842  0.52223982  0.71928071    -0.39600
O2170       O  0.99697967  0.47117929  0.73313849    -0.39700
C2171       C  0.72370623  0.62693321  0.85597832    -0.11900
C2172       C  0.71907492  0.67818000  0.85321022     0.05100
C2173       C  0.71749375  0.71084611  0.86610171    -0.07200
C2174       C  0.71945552  0.69174599  0.88136329    -0.08000
C2175       C  0.72251059  0.64009295  0.88421776    -0.02500
C2176       C  0.72527842  0.60763015  0.87123752     0.04300
N2177       N  0.72879710  0.55504453  0.87322150     0.66800
H2178       H  0.72544504  0.60117850  0.84617561     0.15700
H2179       H  0.71774377  0.71784003  0.89107577     0.15400
N2180       N  0.71218010  0.76299152  0.86398867     0.74500
O2181       O  0.70564671  0.52992517  0.87889763    -0.38900
O2182       O  0.75258665  0.53281005  0.86693141    -0.38900
O2183       O  0.68533555  0.77822409  0.85897275    -0.39600
O2184       O  0.73269693  0.79398544  0.86887227    -0.39700
C2185       C  0.82813528  0.70787609  0.79868642    -0.11900
C2186       C  0.80567741  0.67103634  0.80331272     0.05100
C2187       C  0.81720945  0.62389409  0.80769604    -0.07200
C2188       C  0.85065771  0.61524654  0.80775275    -0.08000
C2189       C  0.87333177  0.65293673  0.80394156    -0.02500
C2190       C  0.86158524  0.69967970  0.79910957     0.04300
N2191       N  0.88289866  0.73957045  0.79482254     0.66800
H2192       H  0.81968040  0.74433435  0.79519568     0.15700
H2193       H  0.85886802  0.57889726  0.81146302     0.15400
N2194       N  0.79572126  0.58543358  0.81306988     0.74500
O2195       O  0.87984037  0.76043521  0.78163906    -0.38900
O2196       O  0.89925008  0.76090301  0.80530878    -0.38900
O2197       O  0.79925870  0.54151774  0.80803041    -0.39600
O2198       O  0.77705056  0.59333157  0.82468329    -0.39700
C2199       C  0.74894628  0.82058511  0.63131484    -0.11900
C2200       C  0.73854809  0.77164507  0.63482112     0.05100
C2201       C  0.72658715  0.74193416  0.62250180    -0.07200
C2202       C  0.72504317  0.76184296  0.60728457    -0.08000
C2203       C  0.73558033  0.81063924  0.60390606    -0.02500
C2204       C  0.74730496  0.84045985  0.61617007     0.04300
N2205       N  0.75891020  0.89005480  0.61347660     0.66800
H2206       H  0.75813428  0.84455759  0.64049207     0.15700
H2207       H  0.71643365  0.73826730  0.59785295     0.15400
N2208       N  0.71670596  0.69144371  0.62502086     0.74500
O2209       O  0.73992811  0.92278406  0.60831195    -0.38900
O2210       O  0.78542185  0.90355853  0.61934310    -0.38900
O2211       O  0.68980598  0.67664436  0.61992000    -0.39600
O2212       O  0.73707497  0.65980136  0.62960831    -0.39700
C2213       C  0.82964422  0.63450476  0.67660529    -0.11900
C2214       C  0.82509928  0.68439114  0.68152712     0.05100
C2215       C  0.85240141  0.71190324  0.68613675    -0.07200
C2216       C  0.88316822  0.69015754  0.68528583    -0.08000
C2217       C  0.88779164  0.64071613  0.68009482    -0.02500
C2218       C  0.86053481  0.61268896  0.67578828     0.04300
N2219       N  0.86386424  0.56306069  0.66985108     0.66800
H2220       H  0.80916491  0.61238744  0.67291780     0.15700
H2221       H  0.90365298  0.71223044  0.68900673     0.15400
N2222       N  0.84938287  0.76151474  0.69209077     0.74500
O2223       O  0.85005362  0.52744019  0.67687038    -0.38900
O2224       O  0.87759033  0.55555372  0.65670320    -0.38900
O2225       O  0.83846422  0.76872571  0.70584612    -0.39600
O2226       O  0.86136412  0.79738695  0.68444352    -0.39700
C2227       C  0.74334735  0.75914024  0.73701264    -0.11900
C2228       C  0.72406814  0.72722424  0.72785583     0.05100
C2229       C  0.69966684  0.69886047  0.73531052    -0.07200
C2230       C  0.69589942  0.70192153  0.75169464    -0.08000
C2231       C  0.71543853  0.73351211  0.76084327    -0.02500
C2232       C  0.73927253  0.76252981  0.75331087     0.04300
N2233       N  0.76072936  0.79348132  0.76205614     0.66800
H2234       H  0.76221867  0.78131753  0.73149194     0.15700
H2235       H  0.67717179  0.67973855  0.75731821     0.15400
N2236       N  0.67763053  0.66874916  0.72649942     0.74500
O2237       O  0.78361343  0.77406794  0.76957629    -0.38900
O2238       O  0.75975431  0.84009938  0.76040128    -0.38900
O2239       O  0.67029655  0.62573682  0.73129327    -0.39600
O2240       O  0.66157652  0.68783589  0.71551320    -0.39700
C2241       C  0.46750497  0.84742899  0.62295261    -0.11900
C2242       C  0.48637714  0.82062309  0.63342841     0.05100
C2243       C  0.50247769  0.77716969  0.62820678    -0.07200
C2244       C  0.49916065  0.76078303  0.61266944    -0.08000
C2245       C  0.48004288  0.78726034  0.60208808    -0.02500
C2246       C  0.46363782  0.83088892  0.60744971     0.04300
N2247       N  0.44172845  0.85756725  0.59759733     0.66800
H2248       H  0.45401268  0.87957916  0.62711596     0.15700
H2249       H  0.51255540  0.72827152  0.60874179     0.15400
N2250       N  0.52345571  0.75061089  0.63845815     0.74500
O2251       O  0.41859566  0.83493099  0.59118381    -0.38900
O2252       O  0.44266669  0.90448848  0.59710116    -0.38900
O2253       O  0.51823129  0.70532395  0.64144017    -0.39600
O2254       O  0.54957299  0.77048985  0.64273151    -0.39700
C2255       C  0.58414651  0.75990479  0.67530773    -0.11900
C2256       C  0.57354065  0.80280548  0.68310293     0.05100
C2257       C  0.59665478  0.83524261  0.68984109    -0.07200
C2258       C  0.62981810  0.82470244  0.68816406    -0.08000
C2259       C  0.64051399  0.78230147  0.68001824    -0.02500
C2260       C  0.61721114  0.75014117  0.67317289     0.04300
N2261       N  0.62658307  0.70896039  0.66330099     0.66800
H2262       H  0.56662359  0.73540149  0.66993597     0.15700
H2263       H  0.64726220  0.84873977  0.69380424     0.15400
N2264       N  0.58679448  0.87770833  0.69901434     0.74500
O2265       O  0.61135284  0.66831206  0.66416067    -0.38900
O2266       O  0.64656570  0.71551164  0.65212887    -0.38900
O2267       O  0.56427175  0.87366199  0.70910892    -0.39600
O2268       O  0.60299574  0.91750094  0.69841414    -0.39700
C2269       C  0.46356347  0.86309622  0.86452125    -0.11900
C2270       C  0.46637230  0.90208042  0.85374876     0.05100
C2271       C  0.46825204  0.95171833  0.85952466    -0.07200
C2272       C  0.46864785  0.96077860  0.87573790    -0.08000
C2273       C  0.46754465  0.92148194  0.88644879    -0.02500
C2274       C  0.46383311  0.87210728  0.88072235     0.04300
N2275       N  0.45970539  0.83066101  0.89115628     0.66800
H2276       H  0.46128973  0.82513000  0.86035567     0.15700
H2277       H  0.47124016  0.99868516  0.87992401     0.15400
N2278       N  0.47026966  0.99354906  0.84918696     0.74500
O2279       O  0.43754450  0.83152171  0.90150247    -0.38900
O2280       O  0.47493146  0.79064155  0.88861954    -0.38900
O2281       O  0.44654811  0.02294165  0.84830465    -0.39600
O2282       O  0.49758651  0.00719288  0.84396281    -0.39700
C2283       C  0.58707159  0.84601516  0.81373611    -0.11900
C2284       C  0.56072367  0.81813963  0.80851325     0.05100
C2285       C  0.56570573  0.76755439  0.80422707    -0.07200
C2286       C  0.59637435  0.74588983  0.80574579    -0.08000
C2287       C  0.62285320  0.77361788  0.81097302    -0.02500
C2288       C  0.61782978  0.82443725  0.81513767     0.04300
N2289       N  0.64343194  0.85470530  0.82110271     0.66800
H2290       H  0.58359093  0.88446990  0.81724853     0.15700
H2291       H  0.59975709  0.70757111  0.80208654     0.15400
N2292       N  0.54034425  0.73823660  0.79750560     0.74500
O2293       O  0.65112121  0.89451913  0.81415620    -0.38900
O2294       O  0.65495648  0.84561894  0.83446637    -0.38900
O2295       O  0.52577893  0.75368889  0.78550465    -0.39600
O2296       O  0.53555981  0.69425358  0.80216183    -0.39700
C2297       C  0.48265533  0.90119530  0.75169163    -0.11900
C2298       C  0.47313324  0.85854592  0.76023537     0.05100
C2299       C  0.46529605  0.81498640  0.75191273    -0.07200
C2300       C  0.46748884  0.81468350  0.73549206    -0.08000
C2301       C  0.47705743  0.85736977  0.72696765    -0.02500
C2302       C  0.48470872  0.90101399  0.73530602     0.04300
N2303       N  0.49453294  0.94559173  0.72743420     0.66800
H2304       H  0.48878442  0.93542670  0.75771607     0.15700
H2305       H  0.46129494  0.78057219  0.72941695     0.15400
N2306       N  0.45471571  0.77095241  0.75984256     0.74500
O2307       O  0.52385482  0.95147651  0.72354018    -0.38900
O2308       O  0.47549670  0.98227384  0.72704331    -0.38900
O2309       O  0.42535852  0.76646444  0.76387951    -0.39600
O2310       O  0.47330387  0.73379823  0.76056966    -0.39700
C2311       C  0.24943626  0.99665160  0.62395752    -0.11900
C2312       C  0.23717725  0.53816591  0.63395721     0.05100
C2313       C  0.25763613  0.51522237  0.62278718    -0.07200
C2314       C  0.25798242  0.53294479  0.60734782    -0.08000
C2315       C  0.23877687  0.57374447  0.60281525    -0.02500
C2316       C  0.21844294  0.59683447  0.61410747     0.04300
N2317       N  0.27526410  0.98462365  0.59838628     0.66800
H2318       H  0.26044916  0.96202469  0.62759738     0.15700
H2319       H  0.27420559  0.51537180  0.59888322     0.15400
N2320       N  0.27971451  0.47647754  0.62711473     0.74500
O2321       O  0.30135124  0.00262440  0.59299374    -0.38900
O2322       O  0.19536085  0.67506014  0.61845573    -0.38900
O2323       O  0.28574414  0.44123126  0.61767324    -0.39600
O2324       O  0.29689058  0.48144584  0.63918580    -0.39700
C2325       C  0.09742389  0.59937309  0.67954428    -0.11900
C2326       C  0.07550481  0.55941127  0.68155838     0.05100
C2327       C  0.08807974  0.51157994  0.68430618    -0.07200
C2328       C  0.12161350  0.50468209  0.68478335    -0.08000
C2329       C  0.14349709  0.54425022  0.68215586    -0.02500
C2330       C  0.13103230  0.59226150  0.67960519     0.04300
N2331       N  0.15182321  0.63372847  0.67631826     0.66800
H2332       H  0.08852847  0.63661313  0.67737966     0.15700
H2333       H  0.12795888  0.95662971  0.68773651     0.15400
N2334       N  0.06484322  0.95980226  0.68658471     0.74500
O2335       O  0.16992062  0.63310799  0.66423993    -0.38900
O2336       O  0.14808171  0.67392583  0.68383760    -0.38900
O2337       O  0.05768268  0.93451695  0.67459679    -0.39600
O2338       O  0.05665355  0.94453169  0.70008384    -0.39700
C2339       C  0.35220092  0.96575177  0.68697682    -0.11900
C2340       C  0.32811860  0.94600789  0.67735642     0.05100
C2341       C  0.33515921  0.90270753  0.66829568    -0.07200
C2342       C  0.36544881  0.87928977  0.66957982    -0.08000
C2343       C  0.38935652  0.89883191  0.67931014    -0.02500
C2344       C  0.38251594  0.94243327  0.68820756     0.04300
N2345       N  0.40542443  0.96187922  0.69920377     0.66800
H2346       H  0.34679110  0.99788890  0.69427882     0.15700
H2347       H  0.37090436  0.84696058  0.66237037     0.15400
N2348       N  0.31233533  0.88323351  0.65726345     0.74500
O2349       O  0.40830468  0.00828480  0.70105380    -0.38900
O2350       O  0.41946772  0.93293585  0.70858452    -0.38900
O2351       O  0.29805872  0.91219071  0.64796772    -0.39600
O2352       O  0.30939284  0.83682384  0.65544686    -0.39700
C2353       C  0.22718356  0.88298610  0.85567979    -0.11900
C2354       C  0.22140461  0.93409933  0.85304039     0.05100
C2355       C  0.21750134  0.96576388  0.86611110    -0.07200
C2356       C  0.21780194  0.94564228  0.88130723    -0.08000
C2357       C  0.22274704  0.89424304  0.88399740    -0.02500
C2358       C  0.22800100  0.86299878  0.87089818     0.04300
N2359       N  0.23368319  0.81090369  0.87274888     0.66800
H2360       H  0.23074617  0.85794237  0.84579103     0.15700
H2361       H  0.21430676  0.97101997  0.89110306     0.15400
N2362       N  0.21227107  0.01805187  0.86424002     0.74500
O2363       O  0.21011951  0.78171314  0.87488062    -0.38900
O2364       O  0.26165216  0.79340911  0.87030658    -0.38900
O2365       O  0.18696876  0.03783792  0.86990761    -0.39600
O2366       O  0.23534183  0.04548213  0.85970058    -0.39700
C2367       C  0.33168436  0.96980784  0.80988762    -0.11900
C2368       C  0.30960368  0.93416634  0.80415584     0.05100
C2369       C  0.32180924  0.88911800  0.79797360    -0.07200
C2370       C  0.35529337  0.88040603  0.79803269    -0.08000
C2371       C  0.37719090  0.91613630  0.80381376    -0.02500
C2372       C  0.36506464  0.96148077  0.80964924     0.04300
N2373       N  0.38595762  0.99817636  0.81630414     0.66800
H2374       H  0.32307914  0.00465089  0.81483446     0.15700
H2375       H  0.36430166  0.84533348  0.79341628     0.15400
N2376       N  0.30086010  0.85221667  0.79143172     0.74500
O2377       O  0.40336380  0.02478095  0.80738064    -0.38900
O2378       O  0.38252093  0.01021069  0.83058931    -0.38900
O2379       O  0.28417331  0.86243477  0.77953290    -0.39600
O2380       O  0.30251196  0.80772283  0.79606761    -0.39700
C2381       C  0.08549723  0.59240468  0.80329176    -0.11900
C2382       C  0.05960889  0.56357369  0.80892188     0.05100
C2383       C  0.06600065  0.51402694  0.81394059    -0.07200
C2384       C  0.09738851  0.49433865  0.81256230    -0.08000
C2385       C  0.12313346  0.52318906  0.80690285    -0.02500
C2386       C  0.11697543  0.57289703  0.80211210     0.04300
N2387       N  0.14201843  0.60348241  0.79535358     0.66800
H2388       H  0.08108124  0.62987939  0.79916716     0.15700
H2389       H  0.10124938  0.95456584  0.80520232     0.15400
N2390       N  0.04133850  0.48358145  0.82103361     0.74500
O2391       O  0.15942454  0.58699111  0.78418890    -0.38900
O2392       O  0.14368423  0.64902738  0.79893601    -0.38900
O2393       O  0.03788835  0.43904052  0.81660778    -0.39600
O2394       O  0.02685887  0.49831671  0.83336340    -0.39700
C2395       C  0.24468731  0.01789706  0.75401359    -0.11900
C2396       C  0.21817529  0.99262760  0.76058698     0.05100
C2397       C  0.19852480  0.96294375  0.75071029    -0.07200
C2398       C  0.20665485  0.95769969  0.73472656    -0.08000
C2399       C  0.23331978  0.98257443  0.72816504    -0.02500
C2400       C  0.25272179  0.01287458  0.73798266     0.04300
N2401       N  0.28127571  0.03731104  0.73200547     0.66800
H2402       H  0.26046158  0.03918818  0.76157630     0.15700
H2403       H  0.19091524  0.93625693  0.72718650     0.15400
N2404       N  0.16978459  0.93890216  0.75664491     0.74500
O2405       O  0.28903386  0.07976784  0.73711203    -0.38900
O2406       O  0.30060531  0.01444470  0.72290575    -0.38900
O2407       O  0.15065359  0.96191993  0.76580634    -0.39600
O2408       O  0.16181882  0.89651926  0.75155336    -0.39700
C2409       C  0.23048463  0.63171641  0.35984542    -0.11900
C2410       C  0.24907551  0.67160826  0.35383485     0.05100
C2411       C  0.27255297  0.69390018  0.36351239    -0.07200
C2412       C  0.27623431  0.67666805  0.37893729    -0.08000
C2413       C  0.25801389  0.63636215  0.38467780    -0.02500
C2414       C  0.23501816  0.61372726  0.37504635     0.04300
N2415       N  0.21450915  0.57495762  0.38095847     0.66800
H2416       H  0.21221009  0.61414327  0.35268032     0.15700
H2417       H  0.29342258  0.69491365  0.38656461     0.15400
N2418       N  0.29339996  0.73273871  0.35784152     0.74500
O2419       O  0.18483818  0.58327356  0.38351962    -0.38900
O2420       O  0.22604857  0.53243994  0.38372080    -0.38900
O2421       O  0.29778633  0.77113768  0.36612779    -0.39600
O2422       O  0.31159547  0.72500853  0.34603841    -0.39700
C2423       C  0.25864530  0.78763298  0.12885121    -0.11900
C2424       C  0.24335009  0.74302483  0.13364677     0.05100
C2425       C  0.22556642  0.71580891  0.12245229    -0.07200
C2426       C  0.22281812  0.73448828  0.10711108    -0.08000
C2427       C  0.23745994  0.77963270  0.10262398    -0.02500
C2428       C  0.25553600  0.80638008  0.11363730     0.04300
N2429       N  0.27187508  0.85157038  0.10944677     0.66800
H2430       H  0.27272271  0.80917029  0.13710231     0.15700
H2431       H  0.20970726  0.71296251  0.09847211     0.15400
N2432       N  0.21033233  0.66942678  0.12629565     0.74500
O2433       O  0.25571593  0.88889949  0.10517242    -0.38900
O2434       O  0.30149944  0.85680375  0.11250009    -0.38900
O2435       O  0.18125749  0.66203413  0.12255382    -0.39600
O2436       O  0.22744130  0.63292638  0.13042583    -0.39700
C2437       C  0.24132395  0.66574437  0.23523784    -0.11900
C2438       C  0.23743209  0.71111817  0.22752635     0.05100
C2439       C  0.23575547  0.75572791  0.23653413    -0.07200
C2440       C  0.23890975  0.75389860  0.25287949    -0.08000
C2441       C  0.24287373  0.70853666  0.26058070    -0.02500
C2442       C  0.24459287  0.66389241  0.25157868     0.04300
N2443       N  0.25108574  0.61659460  0.25869692     0.66800
H2444       H  0.24350267  0.63165134  0.22846410     0.15700
H2445       H  0.23687299  0.78802398  0.25964712     0.15400
N2446       N  0.22981889  0.80308564  0.22938043     0.74500
O2447       O  0.23518148  0.57864024  0.25466253    -0.38900
O2448       O  0.27557345  0.61129162  0.26726463    -0.38900
O2449       O  0.20488490  0.80943459  0.22119456    -0.39600
O2450       O  0.24720288  0.84008540  0.23281003    -0.39700
C2451       C  0.50182053  0.60996065  0.36579854    -0.11900
C2452       C  0.49859159  0.64427521  0.35361188     0.05100
C2453       C  0.49785633  0.69589665  0.35732179    -0.07200
C2454       C  0.50129293  0.71181078  0.37289661    -0.08000
C2455       C  0.50515781  0.67752216  0.38506204    -0.02500
C2456       C  0.50506356  0.62588208  0.38137128     0.04300
N2457       N  0.50783064  0.58877810  0.39329007     0.66800
H2458       H  0.50247106  0.57044263  0.36322786     0.15700
H2459       H  0.50089472  0.75133731  0.37545607     0.15400
N2460       N  0.49325929  0.73285666  0.34546342     0.74500
O2461       O  0.48274693  0.57338598  0.40035715    -0.38900
O2462       O  0.53429998  0.56610757  0.39499007    -0.38900
O2463       O  0.46631712  0.73646115  0.33873198    -0.39600
O2464       O  0.51488274  0.76510685  0.34289461    -0.39700
C2465       C  0.35895671  0.69545700  0.30241919    -0.11900
C2466       C  0.33618905  0.65675170  0.30460666     0.05100
C2467       C  0.34771945  0.60782183  0.30633775    -0.07200
C2468       C  0.38119728  0.59902029  0.30640736    -0.08000
C2469       C  0.40395979  0.63812741  0.30490971    -0.02500
C2470       C  0.39234749  0.68665629  0.30245494     0.04300
N2471       N  0.41394123  0.72761561  0.30011196     0.66800
H2472       H  0.35089379  0.73338283  0.30067727     0.15700
H2473       H  0.38931652  0.56109092  0.30807463     0.15400
N2474       N  0.32603654  0.56692724  0.30869020     0.74500
O2475       O  0.42790371  0.73326315  0.28694241    -0.38900
O2476       O  0.41507804  0.76204041  0.31021314    -0.38900
O2477       O  0.32601520  0.53124540  0.29900845    -0.39600
O2478       O  0.31056453  0.56291206  0.32152729    -0.39700
C2479       C  0.48909784  0.46750741  0.11560713    -0.11900
C2480       C  0.48321596  0.50366408  0.10419482     0.05100
C2481       C  0.47945420  0.55410174  0.10907559    -0.07200
C2482       C  0.48089864  0.56666403  0.12503128    -0.08000
C2483       C  0.48604892  0.53028205  0.13641672    -0.02500
C2484       C  0.49039868  0.48010003  0.13155422     0.04300
N2485       N  0.49673616  0.44130312  0.14258535     0.66800
H2486       H  0.50750990  0.94342341  0.11227617     0.15700
H2487       H  0.47758105  0.60516465  0.12853104     0.15400
N2488       N  0.47451699  0.59343037  0.09805413     0.74500
O2489       O  0.51969127  0.92077328  0.14132734    -0.38900
O2490       O  0.52449275  0.42175749  0.14281841    -0.38900
O2491       O  0.44801608  0.61680256  0.09812548    -0.39600
O2492       O  0.49817556  0.60991830  0.09010227    -0.39700
C2493       C  0.39056292  0.66810383  0.18578408    -0.11900
C2494       C  0.39464093  0.61818612  0.18095614     0.05100
C2495       C  0.36751751  0.59167119  0.17553985    -0.07200
C2496       C  0.33710926  0.61504088  0.17557561    -0.08000
C2497       C  0.33292291  0.66488647  0.18053415    -0.02500
C2498       C  0.36020661  0.69143348  0.18568627     0.04300
N2499       N  0.35747192  0.74143134  0.19134781     0.66800
H2500       H  0.41109028  0.68910780  0.19002288     0.15700
H2501       H  0.31665041  0.59415321  0.17123074     0.15400
N2502       N  0.37052086  0.54226204  0.16919627     0.74500
O2503       O  0.34485968  0.74981722  0.20469762    -0.38900
O2504       O  0.37125266  0.77634085  0.18396396    -0.38900
O2505       O  0.34878994  0.51034738  0.17198823    -0.39600
O2506       O  0.39194149  0.53282503  0.15888196    -0.39700
C2507       C  0.46399975  0.55956906  0.23848732    -0.11900
C2508       C  0.48916561  0.57972761  0.22921334     0.05100
C2509       C  0.51768039  0.59607892  0.23643704    -0.07200
C2510       C  0.52004179  0.59355116  0.25278473    -0.08000
C2511       C  0.49471816  0.57418352  0.26212236    -0.02500
C2512       C  0.46619654  0.55727485  0.25490326     0.04300
N2513       N  0.43863116  0.54089124  0.26396023     0.66800
H2514       H  0.44210476  0.54660894  0.23290293     0.15700
H2515       H  0.54200687  0.60661808  0.25828894     0.15400
N2516       N  0.54518966  0.61192857  0.22733484     0.74500
O2517       O  0.42776928  0.56745818  0.27509273    -0.38900
O2518       O  0.42189006  0.50472249  0.25918506    -0.38900
O2519       O  0.55977345  0.65154179  0.23092146    -0.39600
O2520       O  0.55829187  0.58212449  0.21769401    -0.39700
C2521       C  0.02175205  0.87806567  0.36251038    -0.11900
C2522       C  0.99959983  0.90051153  0.35254032     0.05100
C2523       C  0.98318700  0.94411587  0.35753886    -0.07200
C2524       C  0.98923221  0.96426704  0.37248214    -0.08000
C2525       C  0.01128543  0.94163545  0.38259527    -0.02500
C2526       C  0.02833222  0.89852362  0.37730259     0.04300
N2527       N  0.05327184  0.87607523  0.38653024     0.66800
H2528       H  0.03559455  0.84625680  0.35834880     0.15700
H2529       H  0.97545124  0.99628668  0.37649257     0.15400
N2530       N  0.95954029  0.96723289  0.34773051     0.74500
O2531       O  0.05602572  0.82931364  0.38701887    -0.38900
O2532       O  0.07491209  0.90282689  0.39260787    -0.38900
O2533       O  0.93905794  0.94083260  0.34065715    -0.39600
O2534       O  0.95682659  0.01401016  0.34744162    -0.39700
C2535       C  0.09307492  0.75375934  0.31071671    -0.11900
C2536       C  0.09085867  0.80586698  0.30862901     0.05100
C2537       C  0.11984394  0.83320131  0.30708505    -0.07200
C2538       C  0.14971375  0.80860610  0.30784007    -0.08000
C2539       C  0.15195334  0.75654470  0.30984065    -0.02500
C2540       C  0.12303698  0.72909250  0.31142515     0.04300
N2541       N  0.12348960  0.67655439  0.31418870     0.66800
H2542       H  0.07130294  0.73163986  0.31205402     0.15700
H2543       H  0.17144247  0.83077172  0.30638599     0.15400
N2544       N  0.11964202  0.88572403  0.30437648     0.74500
O2545       O  0.13601847  0.65975101  0.32655421    -0.38900
O2546       O  0.10749838  0.64774525  0.30548832    -0.38900
O2547       O  0.13304799  0.91455617  0.31405352    -0.39600
O2548       O  0.11156412  0.90217087  0.29109883    -0.39700
C2549       C  0.99846925  0.80021661  0.10582912    -0.11900
C2550       C  0.99033187  0.75036229  0.10251672     0.05100
C2551       C  0.98388681  0.71774921  0.11509613    -0.07200
C2552       C  0.98521351  0.73591212  0.13055975    -0.08000
C2553       C  0.99221762  0.78633392  0.13393179    -0.02500
C2554       C  0.99984911  0.81834322  0.12129117     0.04300
N2555       N  0.00914818  0.86905770  0.12381408     0.66800
H2556       H  0.00414158  0.82546894  0.09625944     0.15700
H2557       H  0.97942922  0.71034486  0.14001235     0.15400
N2558       N  0.97396690  0.66722023  0.11247033     0.74500
O2559       O  0.03538268  0.87857352  0.13064813    -0.38900
O2560       O  0.99470169  0.90346736  0.11666507    -0.38900
O2561       O  0.98447521  0.63295373  0.12115580    -0.39600
O2562       O  0.95112059  0.65784355  0.10319907    -0.39700
C2563       C  0.13783488  0.80660417  0.18627035    -0.11900
C2564       C  0.14758490  0.75984993  0.18063689     0.05100
C2565       C  0.12336843  0.72472346  0.17638521    -0.07200
C2566       C  0.09057192  0.73686637  0.17812621    -0.08000
C2567       C  0.08094255  0.78381521  0.18345534    -0.02500
C2568       C  0.10491337  0.81886920  0.18785770     0.04300
N2569       N  0.09627855  0.86644243  0.19441531     0.66800
H2570       H  0.15588341  0.83331223  0.18994814     0.15700
H2571       H  0.07248705  0.71031154  0.17436027     0.15400
N2572       N  0.13138597  0.67733968  0.16956761     0.74500
O2573       O  0.07524134  0.86930495  0.20528732    -0.38900
O2574       O  0.11224741  0.90478510  0.19068730    -0.38900
O2575       O  0.11806820  0.63833449  0.17477581    -0.39600
O2576       O  0.14729717  0.67537775  0.15679859    -0.39700
C2577       C  0.01002841  0.88586653  0.25042756    -0.11900
C2578       C  0.99837763  0.84596388  0.25969856     0.05100
C2579       C  0.98183080  0.80683421  0.25219826    -0.07200
C2580       C  0.97687863  0.80908644  0.23596392    -0.08000
C2581       C  0.98883256  0.84868394  0.22665682    -0.02500
C2582       C  0.00514750  0.88804230  0.23416297     0.04300
N2583       N  0.01655263  0.93077099  0.22567102     0.66800
H2584       H  0.02239584  0.91682828  0.25588903     0.15700
H2585       H  0.96438775  0.77817889  0.23053754     0.15400
N2586       N  0.97039760  0.76405681  0.26065576     0.74500
O2587       O  0.99664908  0.95764613  0.21841905    -0.38900
O2588       O  0.04464928  0.94730734  0.22810878    -0.38900
O2589       O  0.94198553  0.74838434  0.25851033    -0.39600
O2590       O  0.99038936  0.73634004  0.26753077    -0.39700
C2591       C  0.74909586  0.96164072  0.38069177    -0.11900
C2592       C  0.75501747  0.91172874  0.38503592     0.05100
C2593       C  0.75963039  0.87599058  0.37309782    -0.07200
C2594       C  0.75662764  0.89002183  0.35736834    -0.08000
C2595       C  0.74954564  0.93947597  0.35306558    -0.02500
C2596       C  0.74604603  0.97576579  0.36492219     0.04300
N2597       N  0.73772862  0.02625461  0.36131372     0.66800
H2598       H  0.74562802  0.98998928  0.38963978     0.15700
H2599       H  0.76028062  0.86174810  0.34840196     0.15400
N2600       N  0.76719343  0.82534488  0.37664949     0.74500
O2601       O  0.71301116  0.03542630  0.35323874    -0.38900
O2602       O  0.75213322  0.06165169  0.36805151    -0.38900
O2603       O  0.74762155  0.79123133  0.37306734    -0.39600
O2604       O  0.79533114  0.81410688  0.38103018    -0.39700
C2605       C  0.85298019  0.88698148  0.29828390    -0.11900
C2606       C  0.84175521  0.93006558  0.30585850     0.05100
C2607       C  0.86466818  0.96477978  0.31175195    -0.07200
C2608       C  0.89791338  0.95575274  0.30970164    -0.08000
C2609       C  0.90891845  0.91184239  0.30262434    -0.02500
C2610       C  0.88616377  0.87785221  0.29645692     0.04300
N2611       N  0.89652849  0.83453550  0.28789426     0.66800
H2612       H  0.83590993  0.86089810  0.29330676     0.15700
H2613       H  0.91519497  0.98150531  0.31467548     0.15400
N2614       N  0.85481103  0.00769661  0.32070429     0.74500
O2615       O  0.88396879  0.79268973  0.29079708    -0.38900
O2616       O  0.91610807  0.83886649  0.27645705    -0.38900
O2617       O  0.83614392  0.00268300  0.33247540    -0.39600
O2618       O  0.86868758  0.04897024  0.31845992    -0.39700
C2619       C  0.62831491  0.48398403  0.31737019    -0.11900
C2620       C  0.65191244  0.50380031  0.30723992     0.05100
C2621       C  0.64451376  0.54697353  0.29840450    -0.07200
C2622       C  0.61403664  0.56973577  0.30018533    -0.08000
C2623       C  0.59035234  0.55003683  0.31032867    -0.02500
C2624       C  0.59788375  0.50690469  0.31922724     0.04300
N2625       N  0.57553498  0.48712170  0.33069643     0.66800
H2626       H  0.63937975  0.96607558  0.32720727     0.15700
H2627       H  0.60824074  0.60165874  0.29299044     0.15400
N2628       N  0.66709467  0.56674968  0.28702997     0.74500
O2629       O  0.57288993  0.44065520  0.33244136    -0.38900
O2630       O  0.56165583  0.51579535  0.34045612    -0.38900
O2631       O  0.68300596  0.53770043  0.27817158    -0.39600
O2632       O  0.66797397  0.61291419  0.28434033    -0.39700
C2633       C  0.73491751  0.55068094  0.13022831    -0.11900
C2634       C  0.73790391  0.49970826  0.13397575     0.05100
C2635       C  0.73788569  0.46454743  0.12167182    -0.07200
C2636       C  0.73595831  0.48110357  0.10607786    -0.08000
C2637       C  0.73447947  0.53226200  0.10231683    -0.02500
C2638       C  0.73291417  0.56712177  0.11467191     0.04300
N2639       N  0.72975466  0.61927866  0.11172068     0.66800
H2640       H  0.73386680  0.57843247  0.13949492     0.15700
H2641       H  0.73673165  0.45343740  0.09678603     0.15400
N2642       N  0.73289933  0.91976225  0.12470386     0.74500
O2643       O  0.70296336  0.63647066  0.10727436    -0.38900
O2644       O  0.75156114  0.64884536  0.11615102    -0.38900
O2645       O  0.70884130  0.89439383  0.12043420    -0.39600
O2646       O  0.75778732  0.89784691  0.12964764    -0.39700
C2647       C  0.60122084  0.56177710  0.18764572    -0.11900
C2648       C  0.57919408  0.52256856  0.18489745     0.05100
C2649       C  0.59157908  0.47471586  0.18178292    -0.07200
C2650       C  0.62516779  0.46790473  0.18070637    -0.08000
C2651       C  0.64726269  0.50740541  0.18303794    -0.02500
C2652       C  0.63479875  0.55486292  0.18674709     0.04300
N2653       N  0.65551175  0.59669079  0.18940993     0.66800
H2654       H  0.59232925  0.59894042  0.19014823     0.15700
H2655       H  0.63391402  0.43076011  0.17809337     0.15400
N2656       N  0.57075363  0.43283922  0.17930586     0.74500
O2657       O  0.67170228  0.61469438  0.17809056    -0.38900
O2658       O  0.65239866  0.62161090  0.20194796    -0.38900
O2659       O  0.57375510  0.91083669  0.17404016    -0.39600
O2660       O  0.55421386  0.93663061  0.19652777    -0.39700
C2661       C  0.89271391  0.93047984  0.17354496    -0.11900
C2662       C  0.89657138  0.87992259  0.17768050     0.05100
C2663       C  0.86882093  0.85272863  0.18220616    -0.07200
C2664       C  0.83845038  0.87592613  0.18249409    -0.08000
C2665       C  0.83465440  0.92645757  0.17846842    -0.02500
C2666       C  0.86231975  0.95387129  0.17404186     0.04300
N2667       N  0.85998639  0.00505188  0.16965972     0.66800
H2668       H  0.91351767  0.95253483  0.17003423     0.15700
H2669       H  0.81761013  0.85400798  0.18606258     0.15400
N2670       N  0.87096330  0.80179526  0.18684443     0.74500
O2671       O  0.85845348  0.03819375  0.18018912    -0.38900
O2672       O  0.86467480  0.01751392  0.15551197    -0.38900
O2673       O  0.87292322  0.79091110  0.20123062    -0.39600
O2674       O  0.86671878  0.76776036  0.17682905    -0.39700
C2675       C  0.75273142  0.92524888  0.23438887    -0.11900
C2676       C  0.74113180  0.96728161  0.22666768     0.05100
C2677       C  0.73480623  0.50400217  0.23617305    -0.07200
C2678       C  0.73910964  0.50404476  0.25244251    -0.08000
C2679       C  0.74959297  0.96940781  0.25944988    -0.02500
C2680       C  0.75744879  0.92594163  0.25066750     0.04300
N2681       N  0.77158738  0.88311483  0.25797487     0.66800
H2682       H  0.75983724  0.89269901  0.22762265     0.15700
H2683       H  0.73428513  0.53784160  0.25904199     0.15400
N2684       N  0.72343196  0.54869699  0.22886824     0.74500
O2685       O  0.76376456  0.83989272  0.25358605    -0.38900
O2686       O  0.79466238  0.88834980  0.26742843    -0.38900
O2687       O  0.69856822  0.54749540  0.22040125    -0.39600
O2688       O  0.73584229  0.59016992  0.23232268    -0.39700
loop_ 
_geom_bond_atom_site_label_1 
_geom_bond_atom_site_label_2 
_geom_bond_distance 
_geom_bond_site_symmetry_2 
_ccdc_geom_bond_type 
O1           Ni9   1.944       .  S
O1           C11   1.289       .  A
O2           Ni9   1.945   1_565  S
O2         C1356   1.289       .  A
O3           Ni9   1.878       .  S
O3           C13   1.272   1_545  A
O4           Ni9   1.874       .  S
O4         C1358   1.271   1_545  A
O5          Ni10   1.945       .  S
O5           C14   1.289       .  A
O6          Ni10   1.947       .  S
O6         C1357   1.290       .  A
O7          Ni10   1.889       .  S
O7           C12   1.274       .  A
O8        Ni1354   1.882       .  S
O8           C11   1.273   1_565  A
Ni9       Ni1354   2.384   1_545  S
Ni10       O1352   1.879       .  S
Ni10      Ni1353   2.383       .  S
C11        C1307   1.488       .  S
C12        O1346   1.290       .  A
C12        C1321   1.486       .  S
C13        O1350   1.288       .  A
C13        C1290   1.484   1_565  S
C14        O1348   1.270       .  A
C14        C1332   1.476       .  S
O15         Ni23   1.946       .  S
O15          C25   1.290       .  A
O16         Ni23   1.948       .  S
O16          C26   1.289       .  A
O17         Ni23   1.884       .  S
O17          C27   1.272       .  A
O18         Ni23   1.882       .  S
O18          C28   1.273       .  A
O19         Ni24   1.943       .  S
O19          C28   1.289       .  A
O20         Ni24   1.936       .  S
O20          C27   1.288       .  A
O21         Ni24   1.897       .  S
O21          C26   1.275       .  A
O22         Ni24   1.883       .  S
O22          C25   1.271       .  A
Ni23        Ni24   2.384       .  S
C25        C1262   1.488       .  S
C26        C2620   1.484       .  S
C27        C1335   1.476       .  S
C28        C1251   1.489       .  S
O29         Ni37   1.943   1_455  S
O29          C39   1.288       .  A
O30         Ni37   1.945       .  S
O30          C40   1.289       .  A
O31         Ni37   1.885       .  S
O31          C41   1.273       .  A
O32         Ni37   1.880       .  S
O32          C42   1.273       .  A
O33         Ni38   1.937       .  S
O33          C42   1.287       .  A
O34         Ni38   1.942       .  S
O34          C41   1.288       .  A
O35         Ni38   1.894       .  S
O35          C40   1.275       .  A
O36         Ni38   1.884   1_455  S
O36          C39   1.272       .  A
Ni37        Ni38   2.383       .  S
C39        C1223   1.475       .  S
C40        C1318   1.493       .  S
C41        C1209   1.488       .  S
C42        C1237   1.486       .  S
O43         Ni51   1.942   1_655  S
O43          C53   1.289       .  A
O44         Ni51   1.944       .  S
O44          C54   1.288       .  A
O45         Ni51   1.879       .  S
O45          C55   1.273   1_455  A
O46         Ni51   1.883       .  S
O46          C56   1.272   1_455  A
O47         Ni52   1.945       .  S
O47          C56   1.288       .  A
O48         Ni52   1.938       .  S
O48          C55   1.287       .  A
O49         Ni52   1.894   1_455  S
O49          C54   1.275       .  A
O50         Ni52   1.889       .  S
O50          C53   1.273       .  A
Ni51        Ni52   2.383   1_455  S
C53        C1265   1.483       .  S
C54        C1192   1.496       .  S
C55        C1234   1.485       .  S
C56        C1178   1.470       .  S
O57         Ni65   1.942       .  S
O57          C67   1.288       .  A
O58         Ni65   1.945       .  S
O58          C68   1.289       .  A
O59         Ni65   1.886       .  S
O59          C69   1.272       .  A
O60         Ni65   1.882       .  S
O60          C70   1.272       .  A
O61         Ni66   1.942       .  S
O61          C70   1.288       .  A
O62         Ni66   1.946       .  S
O62          C69   1.289       .  A
O63         Ni66   1.891       .  S
O63          C68   1.274       .  A
O64         Ni66   1.883       .  S
O64          C67   1.273       .  A
Ni65        Ni66   2.386       .  S
C67        C1304   1.488       .  S
C68        C1150   1.484       .  S
C69        C1139   1.475       .  S
C70        C1164   1.475       .  S
O71         Ni79   1.939       .  S
O71          C81   1.287       .  A
O72         Ni79   1.943       .  S
O72          C82   1.288       .  A
O73         Ni79   1.882       .  S
O73          C83   1.272       .  A
O74         Ni79   1.886       .  S
O74          C84   1.273       .  A
O75         Ni80   1.940       .  S
O75          C84   1.287       .  A
O76         Ni80   1.941       .  S
O76          C83   1.288       .  A
O77         Ni80   1.897       .  S
O77          C82   1.275       .  A
O78         Ni80   1.889       .  S
O78          C81   1.275       .  A
Ni79        Ni80   2.388       .  S
C81        C1125   1.489       .  S
C82        C1279   1.480       .  S
C83        C1167   1.474       .  S
C84        C1108   1.472       .  S
O85         Ni93   1.950       .  S
O85          C95   1.290       .  A
O86         Ni93   1.949       .  S
O86          C96   1.290       .  A
O87         Ni93   1.880       .  S
O87          C97   1.272       .  A
O88         Ni93   1.880       .  S
O88          C98   1.271       .  A
O89         Ni94   1.943       .  S
O89          C98   1.289       .  A
O90         Ni94   1.949       .  S
O90          C97   1.289       .  A
O91         Ni94   1.886       .  S
O91          C96   1.273       .  A
O92         Ni94   1.877       .  S
O92          C95   1.270       .  A
Ni93        Ni94   2.382       .  S
C95        C1220   1.483       .  S
C96        C1153   1.492       .  S
C97        C1080   1.493       .  S
C98        C1094   1.476       .  S
O99        Ni107   1.942       .  S
O99         C109   1.288       .  A
O100       Ni107   1.944       .  S
O100        C110   1.289       .  A
O101       Ni107   1.880       .  S
O101        C111   1.271       .  A
O102       Ni107   1.883       .  S
O102        C112   1.273       .  A
O103       Ni108   1.940       .  S
O103        C112   1.288       .  A
O104       Ni108   1.942       .  S
O104        C111   1.288       .  A
O105       Ni108   1.893       .  S
O105        C110   1.275       .  A
O106       Ni108   1.886       .  S
O106        C109   1.274       .  A
Ni107      Ni108   2.384       .  S
C109       C1122   1.490       .  S
C110       C1195   1.490       .  S
C111       C1097   1.474       .  S
C112       C1066   1.483       .  S
O113       Ni121   1.943       .  S
O113        C123   1.289       .  A
O114       Ni121   1.946       .  S
O114        C124   1.289       .  A
O115       Ni121   1.877       .  S
O115        C125   1.271       .  A
O116       Ni121   1.884       .  S
O116        C126   1.273       .  A
O117       Ni122   1.948       .  S
O117        C126   1.290       .  A
O118       Ni122   1.944       .  S
O118        C125   1.289       .  A
O119       Ni122   1.892       .  S
O119        C124   1.274       .  A
O120       Ni122   1.885       .  S
O120        C123   1.273       .  A
Ni121      Ni122   2.382       .  S
C123       C1024   1.490       .  S
C124       C2385   1.486       .  S
C125       C1052   1.479       .  S
C126       C1010   1.493       .  S
O127       Ni135   1.944       .  S
O127        C137   1.288       .  A
O128      Ni1479   1.953       .  S
O128        C138   1.291       .  A
O129       Ni135   1.886       .  S
O129        C139   1.273       .  A
O130      Ni1479   1.878       .  S
O130        C140   1.271       .  A
O131       Ni136   1.941       .  S
O131        C140   1.289       .  A
O132       Ni136   1.939       .  S
O132       C1483   1.287       .  A
O133       Ni136   1.883       .  S
O133        C138   1.270       .  A
O134       Ni136   1.879       .  S
O134       C1481   1.272       .  A
Ni135      O1472   1.949       .  S
Ni135      O1474   1.886       .  S
Ni135     Ni1480   2.385   1_545  S
Ni136     Ni1479   2.386       .  S
C137       O1478   1.274   1_545  A
C137        C985   1.490       .  S
C138        C996   1.487       .  S
C139       O1476   1.288   1_545  A
C139        C968   1.474       .  S
C140       C1055   1.480       .  S
O141       Ni149   1.948       .  S
O141        C151   1.290       .  A
O142       Ni149   1.951       .  S
O142        C152   1.290       .  A
O143       Ni149   1.869       .  S
O143        C153   1.270       .  A
O144       Ni149   1.875       .  S
O144        C154   1.270       .  A
O145       Ni150   1.940       .  S
O145        C154   1.289       .  A
O146       Ni150   1.939       .  S
O146        C153   1.288       .  A
O147       Ni150   1.887       .  S
O147        C152   1.272       .  A
O148       Ni150   1.881       .  S
O148        C151   1.272       .  A
Ni149      Ni150   2.382       .  S
C151       C1027   1.488       .  S
C152        C940   1.491       .  S
C153        C954   1.479       .  S
C154        C926   1.479       .  S
O155       Ni163   1.938       .  S
O155        C165   1.289       .  A
O156       Ni163   1.942       .  S
O156        C166   1.288       .  A
O157       Ni163   1.880       .  S
O157        C167   1.272       .  A
O158       Ni163   1.874       .  S
O158        C168   1.271       .  A
O159       Ni164   1.934       .  S
O159        C168   1.287       .  A
O160       Ni164   1.940       .  S
O160        C167   1.287       .  A
O161       Ni164   1.892       .  S
O161        C166   1.274       .  A
O162       Ni164   1.887       .  S
O162        C165   1.272       .  A
Ni163      Ni164   2.386       .  S
C165        C912   1.485       .  S
C166        C999   1.477       .  S
C167        C898   1.471       .  S
C168        C957   1.479       .  S
O169       Ni177   1.949       .  S
O169        C179   1.291       .  A
O170       Ni177   1.946       .  S
O170        C180   1.290       .  A
O171       Ni177   1.880       .  S
O171        C181   1.272       .  A
O172       Ni177   1.875       .  S
O172        C182   1.271       .  A
O173       Ni178   1.947       .  S
O173        C182   1.289       .  A
O174       Ni178   1.946       .  S
O174        C181   1.290       .  A
O175       Ni178   1.892       .  S
O175        C180   1.274       .  A
O176       Ni178   1.879       .  S
O176        C179   1.270       .  A
Ni177      Ni178   2.383       .  S
C179        C915   1.489       .  S
C180        C870   1.493       .  S
C181        C856   1.486       .  S
C182        C884   1.473       .  S
O183       Ni191   1.946       .  S
O183        C193   1.289       .  A
O184       Ni191   1.947       .  S
O184        C194   1.291       .  A
O185       Ni191   1.882       .  S
O185        C195   1.272       .  A
O186       Ni191   1.884       .  S
O186        C196   1.273       .  A
O187       Ni192   1.940       .  S
O187        C196   1.288       .  A
O188       Ni192   1.936       .  S
O188        C195   1.287       .  A
O189       Ni192   1.891       .  S
O189        C194   1.273       .  A
O190       Ni192   1.877       .  S
O190        C193   1.272       .  A
Ni191      Ni192   2.384       .  S
C193        C842   1.479       .  S
C194        C943   1.495       .  S
C195        C887   1.473       .  S
C196        C828   1.483       .  S
O197       Ni205   1.945   1_455  S
O197        C207   1.289       .  A
O198       Ni205   1.952       .  S
O198        C208   1.290       .  A
O199       Ni205   1.881       .  S
O199        C209   1.271       .  A
O200       Ni205   1.876       .  S
O200        C210   1.270       .  A
O201       Ni206   1.945       .  S
O201        C210   1.288       .  A
O202       Ni206   1.948       .  S
O202        C209   1.290       .  A
O203       Ni206   1.887       .  S
O203        C208   1.273       .  A
O204       Ni206   1.884   1_455  S
O204        C207   1.273       .  A
Ni205      Ni206   2.385       .  S
C207        C982   1.490       .  S
C208        C873   1.486       .  S
C209        C800   1.488       .  S
C210        C814   1.466       .  S
O211       Ni219   1.944       .  S
O211        C221   1.289       .  A
O212       Ni219   1.952   1_455  S
O212        C222   1.291       .  A
O213       Ni219   1.875       .  S
O213        C223   1.270       .  A
O214       Ni219   1.883       .  S
O214        C224   1.272       .  A
O215       Ni220   1.944       .  S
O215        C224   1.289       .  A
O216       Ni220   1.946       .  S
O216        C223   1.288       .  A
O217       Ni220   1.886   1_455  S
O217        C222   1.272       .  A
O218       Ni220   1.882       .  S
O218        C221   1.273       .  A
Ni219      Ni220   2.383       .  S
C221        C845   1.489       .  S
C222       C1038   1.491       .  S
C223        C817   1.466       .  S
C224        C789   1.489       .  S
O225       Ni233   1.943       .  S
O225        C235   1.289       .  A
O226       Ni233   1.947       .  S
O226        C236   1.289       .  A
O227       Ni233   1.881       .  S
O227        C237   1.272       .  A
O228       Ni233   1.871       .  S
O228        C238   1.270       .  A
O229       Ni234   1.945       .  S
O229        C238   1.288       .  A
O230       Ni234   1.947       .  S
O230        C237   1.289       .  A
O231       Ni234   1.892       .  S
O231        C236   1.274       .  A
O232       Ni234   1.886       .  S
O232        C235   1.273       .  A
Ni233      Ni234   2.385       .  S
C235        C744   1.488       .  S
C236        C761   1.485       .  S
C237        C859   1.488       .  S
C238        C772   1.468       .  S
O239       Ni247   1.947       .  S
O239        C249   1.289       .  A
O240       Ni247   1.955       .  S
O240        C250   1.292       .  A
O241       Ni247   1.878       .  S
O241        C251   1.270       .  A
O242       Ni247   1.878       .  S
O242        C252   1.271       .  A
O243       Ni248   1.946       .  S
O243        C252   1.289       .  A
O244       Ni248   1.940       .  S
O244        C251   1.288       .  A
O245       Ni248   1.885       .  S
O245        C250   1.272       .  A
O246       Ni248   1.882       .  S
O246        C249   1.272       .  A
Ni247      Ni248   2.388       .  S
C249        C716   1.476       .  S
C250        C730   1.491       .  S
C251        C775   1.467       .  S
C252       C1248   1.477       .  S
O253       Ni261   1.948   1_655  S
O253        C263   1.290       .  A
O254       Ni261   1.948       .  S
O254        C264   1.289       .  A
O255       Ni261   1.874       .  S
O255        C265   1.272       .  A
O256       Ni261   1.880       .  S
O256        C266   1.271       .  A
O257       Ni262   1.947   1_455  S
O257        C266   1.290       .  A
O258       Ni262   1.944       .  S
O258        C265   1.288   1_655  A
O259       Ni262   1.890   1_455  S
O259        C264   1.274       .  A
O260       Ni262   1.883       .  S
O260        C263   1.272       .  A
Ni261      Ni262   2.382   1_455  S
C263        C719   1.484       .  S
C264       C2032   1.493       .  S
C265        C702   1.483       .  S
C266       C1181   1.483       .  S
O267       Ni275   1.942   1_455  S
O267        C277   1.288       .  A
O268      Ni1619   1.947       .  S
O268        C278   1.288       .  A
O269       Ni275   1.887       .  S
O269       C1623   1.273       .  A
O270      Ni1619   1.888       .  S
O270        C280   1.274       .  A
O271       Ni276   1.934       .  S
O271        C280   1.287       .  A
O272       Ni276   1.940       .  S
O272        C279   1.288       .  A
O273       Ni276   1.891       .  S
O273        C278   1.273       .  A
O274       Ni276   1.886   1_455  S
O274       C1621   1.273       .  A
Ni275      O1612   1.948       .  S
Ni275      O1614   1.885       .  S
Ni275     Ni1620   2.384   1_545  S
Ni276     Ni1619   2.385       .  S
C277       O1618   1.275   1_545  A
C277        C674   1.492       .  S
C278        C758   1.477       .  S
C279       O1613   1.273       .  A
C279       C2147   1.481       .  S
C280        C705   1.483       .  S
O281       Ni289   1.946       .  S
O281        C291   1.290       .  A
O282       Ni289   1.954       .  S
O282        C292   1.291       .  A
O283       Ni289   1.879       .  S
O283        C293   1.271       .  A
O284       Ni289   1.880       .  S
O284        C294   1.271       .  A
O285       Ni290   1.942       .  S
O285        C294   1.288       .  A
O286       Ni290   1.941       .  S
O286        C293   1.289       .  A
O287       Ni290   1.886       .  S
O287        C292   1.273       .  A
O288       Ni290   1.888       .  S
O288        C291   1.273       .  A
Ni289      Ni290   2.387       .  S
C291        C646   1.486       .  S
C292        C691   1.493       .  S
C293        C663   1.471       .  S
C294       C1069   1.466       .  S
O295       Ni303   1.946       .  S
O295        C305   1.289       .  A
O296       Ni303   1.950       .  S
O296        C306   1.290       .  A
O297       Ni303   1.880       .  S
O297        C307   1.270       .  A
O298       Ni303   1.871       .  S
O298        C308   1.270       .  A
O299       Ni304   1.947       .  S
O299        C308   1.289       .  A
O300       Ni304   1.947       .  S
O300        C307   1.290       .  A
O301       Ni304   1.891       .  S
O301        C306   1.274       .  A
O302       Ni304   1.885       .  S
O302        C305   1.274       .  A
Ni303      Ni304   2.382       .  S
C305        C677   1.492       .  S
C306        C632   1.494       .  S
C307        C971   1.489       .  S
C308        C660   1.470       .  S
O309       Ni317   1.950       .  S
O309        C319   1.290       .  A
O310       Ni317   1.952       .  S
O310        C320   1.290       .  A
O311       Ni317   1.880       .  S
O311        C321   1.270       .  A
O312       Ni317   1.877       .  S
O312        C322   1.271       .  A
O313       Ni318   1.938       .  S
O313        C322   1.288       .  A
O314       Ni318   1.940       .  S
O314        C321   1.290       .  A
O315       Ni318   1.886       .  S
O315        C320   1.273       .  A
O316       Ni318   1.880       .  S
O316        C319   1.272       .  A
Ni317      Ni318   2.384       .  S
C319        C747   1.489       .  S
C320        C635   1.483       .  S
C321        C901   1.486       .  S
C322        C618   1.471       .  S
O323       Ni331   1.951       .  S
O323        C333   1.290       .  A
O324       Ni331   1.951       .  S
O324        C334   1.290       .  A
O325       Ni331   1.874       .  S
O325        C335   1.270       .  A
O326       Ni331   1.881       .  S
O326        C336   1.271       .  A
O327       Ni332   1.943       .  S
O327        C336   1.289       .  A
O328       Ni332   1.941       .  S
O328        C335   1.288       .  A
O329       Ni332   1.887       .  S
O329        C334   1.273       .  A
O330       Ni332   1.881       .  S
O330        C333   1.273       .  A
Ni331      Ni332   2.381       .  S
C333        C649   1.493       .  S
C334        C733   1.497       .  S
C335        C621   1.471       .  S
C336       C1111   1.487       .  S
O337       Ni345   1.954       .  S
O337        C347   1.291       .  A
O338       Ni345   1.954       .  S
O338        C348   1.290       .  A
O339       Ni345   1.879       .  S
O339        C349   1.272       .  A
O340       Ni345   1.883       .  S
O340        C350   1.272       .  A
O341       Ni346   1.950       .  S
O341        C350   1.290       .  A
O342       Ni346   1.947       .  S
O342        C349   1.289       .  A
O343       Ni346   1.887       .  S
O343        C348   1.273       .  A
O344       Ni346   1.881       .  S
O344        C347   1.271       .  A
Ni345      Ni346   2.383       .  S
C347        C579   1.485       .  S
C348        C590   1.487       .  S
C349        C604   1.490       .  S
C350       C1013   1.485       .  S
O351       Ni359   1.951       .  S
O351        C361   1.290       .  A
O352       Ni359   1.954       .  S
O352        C362   1.291       .  A
O353       Ni359   1.888       .  S
O353        C363   1.273       .  A
O354       Ni359   1.892       .  S
O354        C364   1.274       .  A
O355       Ni360   1.936       .  S
O355        C364   1.287       .  A
O356       Ni360   1.941       .  S
O356        C363   1.287       .  A
O357       Ni360   1.887       .  S
O357        C362   1.272       .  A
O358       Ni360   1.881       .  S
O358        C361   1.271       .  A
Ni359      Ni360   2.382       .  S
C361        C548   1.486       .  S
C362        C562   1.496       .  S
C363       C1083   1.479       .  S
C364        C607   1.490       .  S
O365       Ni373   1.952       .  S
O365        C375   1.291       .  A
O366       Ni373   1.950       .  S
O366        C376   1.290       .  A
O367       Ni373   1.874       .  S
O367        C377   1.271       .  A
O368       Ni373   1.876       .  S
O368        C378   1.271       .  A
O369       Ni374   1.947       .  S
O369        C378   1.290       .  A
O370       Ni374   1.943       .  S
O370        C377   1.288       .  A
O371       Ni374   1.895       .  S
O371        C376   1.275       .  A
O372       Ni374   1.884       .  S
O372        C375   1.272       .  A
Ni373      Ni374   2.381       .  S
C375        C506   1.493       .  S
C376        C520   1.500       .  S
C377        C534   1.474       .  S
C378        C831   1.486       .  S
O379       Ni387   1.945       .  S
O379        C389   1.289       .  A
O380       Ni387   1.947       .  S
O380        C390   1.290       .  A
O381       Ni387   1.881       .  S
O381        C391   1.272       .  A
O382       Ni387   1.882       .  S
O382        C392   1.272       .  A
O383       Ni388   1.939       .  S
O383        C392   1.288       .  A
O384       Ni388   1.941       .  S
O384        C391   1.288       .  A
O385       Ni388   1.891       .  S
O385        C390   1.274       .  A
O386       Ni388   1.882       .  S
O386        C389   1.272       .  A
Ni387      Ni388   2.385       .  S
C389        C478   1.482       .  S
C390        C492   1.493       .  S
C391       C1293   1.479       .  S
C392        C537   1.475       .  S
O393       Ni401   1.951       .  S
O393        C403   1.290       .  A
O394       Ni401   1.950       .  S
O394        C404   1.290       .  A
O395       Ni401   1.875       .  S
O395        C405   1.270       .  A
O396       Ni401   1.877       .  S
O396        C406   1.271       .  A
O397       Ni402   1.939       .  S
O397        C406   1.288       .  A
O398       Ni402   1.934       .  S
O398        C405   1.288       .  A
O399       Ni402   1.898       .  S
O399        C404   1.275       .  A
O400       Ni402   1.887       .  S
O400        C403   1.272       .  A
Ni401      Ni402   2.385       .  S
C403        C576   1.479       .  S
C404       C1867   1.501       .  S
C405        C464   1.469       .  S
C406        C929   1.477       .  S
O407       Ni415   1.942       .  S
O407        C417   1.288   1_545  A
O408      Ni1759   1.945       .  S
O408        C418   1.289       .  A
O409       Ni415   1.883       .  S
O409       C1763   1.271   1_545  A
O410      Ni1759   1.869       .  S
O410        C420   1.270       .  A
O411       Ni416   1.940       .  S
O411        C420   1.288       .  A
O412       Ni416   1.942       .  S
O412        C419   1.289       .  A
O413       Ni416   1.896       .  S
O413        C418   1.275       .  A
O414       Ni416   1.884       .  S
O414       C1761   1.273       .  A
Ni415      O1752   1.947   1_545  S
Ni415      O1754   1.874   1_545  S
Ni415     Ni1760   2.383   1_545  S
Ni416     Ni1759   2.383       .  S
C417       O1758   1.274       .  A
C417        C481   1.491   1_565  S
C418        C565   1.488       .  S
C419       O1753   1.270       .  A
C419       C2480   1.486       .  S
C420        C467   1.469       .  S
O421       Ni429   1.944       .  S
O421        C431   1.289       .  A
O422       Ni429   1.945   1_455  S
O422        C432   1.289       .  A
O423       Ni429   1.876       .  S
O423        C433   1.269       .  A
O424       Ni429   1.881       .  S
O424        C434   1.272       .  A
O425       Ni430   1.943       .  S
O425        C434   1.288       .  A
O426       Ni430   1.941       .  S
O426        C433   1.289       .  A
O427       Ni430   1.899   1_455  S
O427        C432   1.275       .  A
O428       Ni430   1.892       .  S
O428        C431   1.274       .  A
Ni429      Ni430   2.385       .  S
C431        C509   1.485       .  S
C432        C593   1.494       .  S
C433        C453   1.479       .  S
C434        C786   1.474       .  S
O435       Ni443   1.944   1_455  S
O435        C445   1.289       .  A
O436       Ni443   1.946       .  S
O436        C446   1.289       .  A
O437       Ni443   1.878       .  S
O437        C447   1.272       .  A
O438       Ni443   1.873       .  S
O438        C448   1.270       .  A
O439       Ni444   1.942       .  S
O439        C448   1.289       .  A
O440       Ni444   1.946       .  S
O440        C447   1.289       .  A
O441       Ni444   1.893       .  S
O441        C446   1.275       .  A
O442       Ni444   1.888   1_455  S
O442        C445   1.273       .  A
Ni443      Ni444   2.384       .  S
C445        C551   1.479       .  S
C446        C495   1.494       .  S
C447       C1206   1.483       .  S
C448        C450   1.476       .  S
C449        C450   1.396       .  A
C449        C454   1.397   1_554  A
C449        H456   1.084   1_655  S
C450        C451   1.422       .  A
C451        C452   1.399   1_554  A
C451        N458   1.436       .  S
C452        C453   1.397       .  A
C452        H457   1.084       .  S
C453        C454   1.421       .  A
C454        N455   1.430   1_655  S
N455        O459   1.262       .  A
N455        O460   1.262       .  A
N458        O462   1.262       .  A
N458        O461   1.263       .  A
C463        C464   1.394       .  A
C463        C468   1.395   1_556  A
C463        H470   1.084       .  S
C464        C465   1.422       .  A
C465        C466   1.399   1_556  A
C465        N472   1.437       .  S
C466        C467   1.395       .  A
C466        H471   1.084       .  S
C467        C468   1.420       .  A
C468        N469   1.437       .  S
N469        O473   1.262       .  A
N469       O1818   1.263       .  A
N472        O476   1.263       .  A
N472        O475   1.263       .  A
O474       N1813   1.263       .  A
C477        C478   1.410       .  A
C477        C482   1.402       .  A
C477        H484   1.084       .  S
C478        C479   1.406   1_545  A
C479        C480   1.400       .  A
C479       N1830   1.433       .  S
C480        C481   1.415   1_565  A
C480       H1829   1.083       .  S
C481        C482   1.413       .  A
C482        N483   1.434       .  S
N483        O487   1.262       .  A
N483        O488   1.263       .  A
H485       C1824   1.083       .  S
N486       C1823   1.433       .  S
N486        O490   1.262       .  A
N486        O489   1.263       .  A
C491        C492   1.413       .  A
C491        C496   1.402       .  A
C491        H498   1.083       .  S
C492        C493   1.408       .  A
C493        C494   1.403       .  A
C493        N500   1.429       .  S
C494        C495   1.414       .  A
C494        H499   1.083       .  S
C495        C496   1.409       .  A
C496        N497   1.429       .  S
N497        O501   1.262       .  A
N497        O502   1.262       .  A
N500        O504   1.262       .  A
N500        O503   1.262       .  A
C505        C506   1.402       .  A
C505        C510   1.406       .  A
C505        H512   1.083       .  S
C506        C507   1.424       .  A
C507        C508   1.400       .  A
C507        N514   1.432       .  S
C508        C509   1.397       .  A
C508        H513   1.084       .  S
C509        C510   1.421       .  A
C510        N511   1.436       .  S
N511        O515   1.263       .  A
N511        O516   1.263       .  A
N514        O518   1.262       .  A
N514        O517   1.262       .  A
C519        C520   1.415   1_565  A
C519        C524   1.407       .  A
C519        H526   1.083       .  S
C520        C521   1.411       .  A
C521        C522   1.405       .  A
C521        N528   1.432       .  S
C522        C523   1.413   1_545  A
C522        H527   1.083       .  S
C523       C1748   1.496       .  S
C523        C524   1.411       .  A
C524       N1869   1.435       .  S
N525       C1868   1.432       .  S
N525        O529   1.262       .  A
N525        O530   1.262       .  A
N528        O532   1.262       .  A
N528        O531   1.262       .  A
C533        C534   1.408       .  A
C533        C538   1.397   1_556  A
C533        H540   1.084       .  S
C534        C535   1.405       .  A
C535        C536   1.400       .  A
C535        N542   1.429       .  S
C536        C537   1.410   1_556  A
C536        H541   1.084   1_556  S
C537        C538   1.408       .  A
C538        N539   1.433       .  S
N539        O543   1.262       .  A
N539        O544   1.262       .  A
N542        O546   1.262   1_545  A
N542        O545   1.262       .  A
C547        C548   1.400       .  A
C547        C552   1.406       .  A
C547        H554   1.084       .  S
C548        C549   1.423       .  A
C549        C550   1.400       .  A
C549        N556   1.437       .  S
C550        C551   1.396       .  A
C550        H555   1.084       .  S
C551        C552   1.421       .  A
C552        N553   1.438       .  S
N553        O557   1.263       .  A
N553        O558   1.263       .  A
N556        O560   1.263       .  A
N556        O559   1.263       .  A
C561        C562   1.401       .  A
C561        C566   1.406       .  A
C561        H568   1.083       .  S
C562        C563   1.425       .  A
C563        C564   1.402       .  A
C563        N570   1.432       .  S
C564        C565   1.397       .  A
C564        H569   1.084       .  S
C565        C566   1.422       .  A
C566        N567   1.436       .  S
N567        O571   1.262       .  A
N567        O572   1.262       .  A
N570        O574   1.262       .  A
N570        O573   1.262       .  A
C575        C576   1.393       .  A
C575        C580   1.399       .  A
C575        H582   1.115       .  S
C576        C577   1.421       .  A
C577        C578   1.406       .  A
C577        N584   1.440       .  S
C578        C579   1.399       .  A
C578        H583   1.097       .  S
C579        C580   1.424       .  A
C580        N581   1.438       .  S
N581        O585   1.263       .  A
N581        O586   1.263       .  A
N584        O588   1.263       .  A
N584        O587   1.263       .  A
C589        C590   1.409       .  A
C589        C594   1.401       .  A
C589        H596   1.084       .  S
C590        C591   1.411       .  A
C591        C592   1.410       .  A
C591        N598   1.436       .  S
C592        C593   1.414       .  A
C592        H597   1.083       .  S
C593        C594   1.410       .  A
C594        N595   1.431       .  S
N595        O599   1.262       .  A
N595        O600   1.262       .  A
N598        O602   1.262       .  A
N598        O601   1.263       .  A
C603        C604   1.413       .  A
C603        C608   1.399   1_556  A
C603        H610   1.083       .  S
C604        C605   1.408       .  A
C605        C606   1.403       .  A
C605        N612   1.431       .  S
C606        C607   1.414   1_556  A
C606        H611   1.083   1_556  S
C607        C608   1.410       .  A
C608        N609   1.434       .  S
N609        O613   1.263       .  A
N609        O614   1.262       .  A
N612        O616   1.262       .  A
N612        O615   1.262       .  A
C617        C618   1.398       .  A
C617        C622   1.400       .  A
C617        H624   1.084       .  S
C618        C619   1.419       .  A
C619        C620   1.400       .  A
C619        N626   1.439       .  S
C620        C621   1.397       .  A
C620        H625   1.084       .  S
C621        C622   1.420       .  A
C622        N623   1.439       .  S
N623        O627   1.263       .  A
N623        O628   1.263       .  A
N626        O630   1.263       .  A
N626        O629   1.263       .  A
C631        C632   1.415       .  A
C631        C636   1.404       .  A
C631        H638   1.083       .  S
C632        C633   1.409       .  A
C633        C634   1.402       .  A
C633        N640   1.428       .  S
C634        C635   1.409       .  A
C634        H639   1.084       .  S
C635        C636   1.404       .  A
C636        N637   1.429       .  S
N637        O641   1.262       .  A
N637        O642   1.262       .  A
N640        O644   1.262       .  A
N640        O643   1.262       .  A
C645        C646   1.412       .  A
C645        C650   1.405       .  A
C645        H652   1.084       .  S
C646        C647   1.406       .  A
C647        C648   1.399       .  A
C647        N654   1.432       .  S
C648        C649   1.414       .  A
C648        H653   1.083       .  S
C649        C650   1.411       .  A
C650        N651   1.433       .  S
N651        O655   1.262       .  A
N651        O656   1.262       .  A
N654        O658   1.262       .  A
N654        O657   1.262       .  A
C659        C660   1.397       .  A
C659        C664   1.403       .  A
C659        H666   1.084       .  S
C660        C661   1.419       .  A
C661        C662   1.398       .  A
C661        N668   1.438       .  S
C662        C663   1.395       .  A
C662        H667   1.084       .  S
C663        C664   1.421       .  A
C664        N665   1.437       .  S
N665        O669   1.263       .  A
N665        O670   1.263       .  A
N668        O672   1.263   1_545  A
N668        O671   1.262       .  A
C673        C674   1.414   1_565  A
C673        C678   1.404   1_565  A
C673       H2024   1.083       .  S
C674        C675   1.411       .  A
C675        C676   1.401       .  A
C675        N682   1.434       .  S
C676        C677   1.413       .  A
C676        H681   1.083       .  S
C677        C678   1.409       .  A
C678       N2023   1.431   1_545  S
N679       C2022   1.431       .  S
N679        O683   1.262       .  A
N679        O684   1.262       .  A
H680       C2017   1.083       .  S
N682        O686   1.262       .  A
N682        O685   1.262       .  A
C687        C688   1.414       .  A
C687        C692   1.404       .  A
C687        H694   1.084       .  S
C688       C1608   1.491       .  S
C688        C689   1.410   1_545  A
C689        C690   1.404   1_565  A
C689       N2040   1.432       .  S
C690        C691   1.413       .  A
C690        H695   1.083       .  S
C691        C692   1.407       .  A
C692        N693   1.429       .  S
N693        O697   1.262       .  A
N693        O698   1.262       .  A
N696       C2033   1.430       .  S
N696        O700   1.262       .  A
N696        O699   1.262       .  A
C701        C702   1.411       .  A
C701        C706   1.395       .  A
C701        H708   1.084       .  S
C702        C703   1.409   1_455  A
C703        C704   1.403       .  A
C703       N2054   1.432       .  S
C704        C705   1.412       .  A
C704       H2053   1.084       .  S
C705        C706   1.406   1_655  A
C706        N707   1.430       .  S
N707        O711   1.262       .  A
N707        O712   1.262       .  A
H709       C2048   1.083       .  S
N710       C2047   1.429       .  S
N710        O714   1.262   1_655  A
N710        O713   1.262       .  A
C715        C716   1.397       .  A
C715        C720   1.403       .  A
C715        H722   1.084       .  S
C716        C717   1.421       .  A
C717        C718   1.404       .  A
C717        N724   1.440       .  S
C718        C719   1.399       .  A
C718        H723   1.084       .  S
C719        C720   1.423       .  A
C720        N721   1.437       .  S
N721        O725   1.263       .  A
N721        O726   1.263       .  A
N724        O728   1.262       .  A
N724        O727   1.263       .  A
C729        C730   1.413       .  A
C729        C734   1.405       .  A
C729        H736   1.084       .  S
C730        C731   1.404       .  A
C731        C732   1.402       .  A
C731        N738   1.429       .  S
C732        C733   1.416       .  A
C732        H737   1.083       .  S
C733        C734   1.412       .  A
C734        N735   1.433       .  S
N735        O739   1.262       .  A
N735        O740   1.262       .  A
N738        O742   1.262       .  A
N738        O741   1.262       .  A
C743        C744   1.414       .  A
C743        C748   1.402       .  A
C743        H750   1.084       .  S
C744        C745   1.406       .  A
C745        C746   1.398       .  A
C745        N752   1.430       .  S
C746        C747   1.414       .  A
C746        H751   1.083       .  S
C747        C748   1.408       .  A
C748        N749   1.430       .  S
N749        O753   1.262       .  A
N749        O754   1.262       .  A
N752        O756   1.262       .  A
N752        O755   1.262       .  A
C757        C758   1.398       .  A
C757        C762   1.406       .  A
C757        H764   1.084       .  S
C758        C759   1.416       .  A
C759        C760   1.405       .  A
C759        N766   1.437       .  S
C760        C761   1.402       .  A
C760        H765   1.084       .  S
C761        C762   1.422       .  A
C762        N763   1.439       .  S
N763        O767   1.263       .  A
N763        O768   1.263       .  A
N766        O770   1.263       .  A
N766        O769   1.262       .  A
C771        C772   1.396       .  A
C771        C776   1.400       .  A
C771        H778   1.084       .  S
C772        C773   1.419       .  A
C773        C774   1.398       .  A
C773        N780   1.438       .  S
C774        C775   1.394       .  A
C774        H779   1.084       .  S
C775        C776   1.417       .  A
C776        N777   1.432       .  S
N777        O781   1.262       .  A
N777        O782   1.262       .  A
N780        O784   1.263       .  A
N780        O783   1.262       .  A
C785        C786   1.408       .  A
C785        C790   1.400       .  A
C785        H792   1.084       .  S
C786        C787   1.401       .  A
C787        C788   1.400       .  A
C787        N794   1.429       .  S
C788        C789   1.416       .  A
C788        H793   1.083       .  S
C789        C790   1.409       .  A
C790        N791   1.430       .  S
N791        O795   1.262       .  A
N791        O796   1.262       .  A
N794        O798   1.262       .  A
N794        O797   1.262   1_655  A
C799        C800   1.401       .  A
C799        C804   1.404   1_655  A
C799        H806   1.083   1_655  S
C800        C801   1.425       .  A
C801        C802   1.401   1_545  A
C801        N808   1.434   1_545  S
C802        C803   1.395   1_565  A
C802       H2151   1.084       .  S
C803       C1623   1.473       .  S
C803        C804   1.417   1_655  A
C804        N805   1.437       .  S
N805        O809   1.263       .  A
N805        O810   1.262       .  A
H807       C2146   1.084   1_455  S
N808       O2156   1.262       .  A
N808        O811   1.262       .  A
O812       N2152   1.262       .  A
C813        C814   1.396       .  A
C813        C818   1.401       .  A
C813        H820   1.084       .  S
C814        C815   1.418       .  A
C815        C816   1.402       .  A
C815        N822   1.438   1_655  S
C816        C817   1.396       .  A
C816        H821   1.084   1_655  S
C817        C818   1.418       .  A
C818        N819   1.438       .  S
N819        O823   1.263       .  A
N819        O824   1.262       .  A
N822        O826   1.263   1_545  A
N822        O825   1.262       .  A
C827        C828   1.413       .  A
C827        C832   1.401       .  A
C827        H834   1.083       .  S
C828        C829   1.405       .  A
C829        C830   1.399       .  A
C829        N836   1.431       .  S
C830        C831   1.414       .  A
C830        H835   1.083       .  S
C831        C832   1.407       .  A
C832        N833   1.431       .  S
N833        O837   1.262       .  A
N833        O838   1.262       .  A
N836        O840   1.262       .  A
N836        O839   1.262       .  A
C841        C842   1.410       .  A
C841        C846   1.400       .  A
C841        H848   1.084       .  S
C842        C843   1.407       .  A
C843        C844   1.401       .  A
C843        N850   1.435       .  S
C844        C845   1.415       .  A
C844        H849   1.083       .  S
C845        C846   1.410       .  A
C846        N847   1.432       .  S
N847        O851   1.262       .  A
N847        O852   1.262       .  A
N850        O854   1.262       .  A
N850        O853   1.262       .  A
C855        C856   1.413       .  A
C855        C860   1.400       .  A
C855        H862   1.084       .  S
C856        C857   1.408       .  A
C857        C858   1.403       .  A
C857        N864   1.436       .  S
C858        C859   1.415       .  A
C858        H863   1.083       .  S
C859        C860   1.407       .  A
C860        N861   1.431       .  S
N861        O865   1.262       .  A
N861        O866   1.262       .  A
N864        O868   1.263       .  A
N864        O867   1.262       .  A
C869        C870   1.414       .  A
C869        C874   1.404       .  A
C869        H876   1.083       .  S
C870        C871   1.409       .  A
C871        C872   1.402       .  A
C871        N878   1.429       .  S
C872        C873   1.411       .  A
C872        H877   1.084       .  S
C873        C874   1.406       .  A
C874        N875   1.430       .  S
N875        O879   1.262       .  A
N875        O880   1.262       .  A
N878        O882   1.262       .  A
N878        O881   1.262       .  A
C883        C884   1.407       .  A
C883        C888   1.398       .  A
C883        H890   1.084       .  S
C884        C885   1.408       .  A
C885        C886   1.402       .  A
C885        N892   1.432       .  S
C886        C887   1.408       .  A
C886        H891   1.084       .  S
C887        C888   1.408       .  A
C888        N889   1.432       .  S
N889        O893   1.262       .  A
N889        O894   1.262       .  A
N892        O896   1.262       .  A
N892        O895   1.262       .  A
C897        C898   1.394       .  A
C897        C902   1.400       .  A
C897        H904   1.084       .  S
C898        C899   1.418       .  A
C899        C900   1.399       .  A
C899        N906   1.438       .  S
C900        C901   1.400       .  A
C900        H905   1.083       .  S
C901        C902   1.426       .  A
C902        N903   1.433       .  S
N903        O907   1.262       .  A
N903        O908   1.262       .  A
N906        O910   1.262       .  A
N906        O909   1.263       .  A
C911        C912   1.397       .  A
C911        C916   1.397       .  A
C911        H918   1.084       .  S
C912        C913   1.422       .  A
C913        C914   1.402       .  A
C913        N920   1.434       .  S
C914        C915   1.400       .  A
C914        H919   1.084       .  S
C915        C916   1.424       .  A
C916        N917   1.431       .  S
N917        O921   1.262       .  A
N917        O922   1.262       .  A
N920        O924   1.262       .  A
N920        O923   1.262       .  A
C925        C926   1.396       .  A
C925        C930   1.397       .  A
C925        H932   1.084       .  S
C926        C927   1.422       .  A
C927        C928   1.397       .  A
C927        N934   1.430       .  S
C928        C929   1.396       .  A
C928        H933   1.084       .  S
C929        C930   1.422       .  A
C930        N931   1.434       .  S
N931        O935   1.261       .  A
N931        O936   1.262       .  A
N934        O938   1.262       .  A
N934        O937   1.262       .  A
C939        C940   1.399       .  A
C939        C944   1.404       .  A
C939        H946   1.084       .  S
C940        C941   1.422       .  A
C941        C942   1.402       .  A
C941        N948   1.432       .  S
C942        C943   1.400       .  A
C942        H947   1.084       .  S
C943        C944   1.425       .  A
C944        N945   1.431       .  S
N945        O949   1.262       .  A
N945        O950   1.262       .  A
N948        O952   1.262       .  A
N948        O951   1.262       .  A
C953        C954   1.413       .  A
C953        C958   1.395       .  A
C953        H960   1.083       .  S
C954        C955   1.405       .  A
C955        C956   1.397       .  A
C955        N962   1.431       .  S
C956        C957   1.414       .  A
C956        H961   1.084       .  S
C957        C958   1.407       .  A
C958        N959   1.433       .  S
N959        O963   1.262       .  A
N959        O964   1.262       .  A
N962        O966   1.262       .  A
N962        O965   1.262       .  A
C967       C2312   1.405       .  A
C967       C2316   1.401       .  A
C967        H974   1.084       .  S
C968        C969   1.417       .  A
C968       C2311   1.394   1_545  A
C969        C970   1.403       .  A
C969        N976   1.437       .  S
C970        C971   1.401       .  A
C970        H975   1.084       .  S
C971        C972   1.426       .  A
C972       C2311   1.401   1_545  A
C972       N2317   1.435   1_545  S
N973       C2316   1.434       .  S
N973        O977   1.263       .  A
N973       O2322   1.262       .  A
N976        O980   1.262       .  A
N976        O979   1.263       .  A
O978       N2317   1.263       .  A
C981        C982   1.413       .  A
C981        C986   1.402       .  A
C981        H988   1.083       .  S
C982        C983   1.406       .  A
C983        C984   1.400   1_545  A
C983       N2334   1.429   1_545  S
C984        C985   1.414   1_565  A
C984       H2333   1.084       .  S
C985        C986   1.411       .  A
C986        N987   1.434       .  S
N987        O991   1.263       .  A
N987        O992   1.262       .  A
H989       C2328   1.084       .  S
N990       C2327   1.430       .  S
N990        O994   1.262       .  A
N990        O993   1.262       .  A
C995        C996   1.401       .  A
C995       C1000   1.403       .  A
C995       H1002   1.084       .  S
C996        C997   1.425       .  A
C997        C998   1.401       .  A
C997       N1004   1.433       .  S
C998        C999   1.394       .  A
C998       H1003   1.084       .  S
C999       C1000   1.416       .  A
C1000      N1001   1.432       .  S
N1001      O1005   1.262       .  A
N1001      O1006   1.262       .  A
N1004      O1008   1.262       .  A
N1004      O1007   1.262       .  A
C1009      C1010   1.415       .  A
C1009      C1014   1.404       .  A
C1009      H1016   1.083       .  S
C1010      C1011   1.408       .  A
C1011      C1012   1.402       .  A
C1011      N1018   1.430       .  S
C1012      C1013   1.412       .  A
C1012      H1017   1.084       .  S
C1013      C1014   1.408       .  A
C1014      N1015   1.436       .  S
N1015      O1019   1.263       .  A
N1015      O1020   1.262       .  A
N1018      O1022   1.262       .  A
N1018      O1021   1.262       .  A
C1023      C1024   1.414       .  A
C1023      C1028   1.401       .  A
C1023      H1030   1.083       .  S
C1024      C1025   1.409       .  A
C1025      C1026   1.401       .  A
C1025      N1032   1.432       .  S
C1026      C1027   1.413       .  A
C1026      H1031   1.084       .  S
C1027      C1028   1.406       .  A
C1028      N1029   1.430       .  S
N1029      O1033   1.262       .  A
N1029      O1034   1.262       .  A
N1032      O1036   1.262       .  A
N1032      O1035   1.262       .  A
C1037      C1038   1.398       .  A
C1037      C1042   1.403       .  A
C1037      H1044   1.084       .  S
C1038      C1039   1.424       .  A
C1039      C1040   1.403   1_545  A
C1039      N1046   1.434   1_545  S
C1040      C1041   1.400   1_565  A
C1040      H2389   1.084       .  S
C1041      C1468   1.496       .  S
C1041      C1042   1.425       .  A
C1042      N1043   1.430       .  S
N1043      O1047   1.262       .  A
N1043      O1048   1.262       .  A
H1045      C2384   1.084       .  S
N1046      O1050   1.262       .  A
N1046      O1049   1.263       .  A
C1051      C1052   1.398       .  A
C1051      C1056   1.401       .  A
C1051      H1058   1.084       .  S
C1052      C1053   1.421       .  A
C1053      C1054   1.400       .  A
C1053      N1060   1.437       .  S
C1054      C1055   1.398       .  A
C1054      H1059   1.084       .  S
C1055      C1056   1.422       .  A
C1056      N1057   1.435       .  S
N1057      O1061   1.263       .  A
N1057      O1062   1.263       .  A
N1060      O1064   1.263       .  A
N1060      O1063   1.263       .  A
C1065      C1066   1.413       .  A
C1065      C1070   1.398       .  A
C1065      H1072   1.084       .  S
C1066      C1067   1.413       .  A
C1067      C1068   1.401       .  A
C1067      N1074   1.434       .  S
C1068      C1069   1.404       .  A
C1068      H1073   1.083       .  S
C1069      C1070   1.400       .  A
C1070      N1071   1.429       .  S
N1071      O1075   1.262       .  A
N1071      O1076   1.262       .  A
N1074      O1078   1.263       .  A
N1074      O1077   1.262       .  A
C1079      C1080   1.415       .  A
C1079      C1084   1.399       .  A
C1079      H1086   1.083       .  S
C1080      C1081   1.412       .  A
C1081      C1082   1.405       .  A
C1081      N1088   1.433       .  S
C1082      C1083   1.410       .  A
C1082      H1087   1.084       .  S
C1083      C1084   1.405       .  A
C1084      N1085   1.433       .  S
N1085      O1089   1.262       .  A
N1085      O1090   1.262       .  A
N1088      O1092   1.262       .  A
N1088      O1091   1.262       .  A
C1093      C1094   1.397       .  A
C1093      C1098   1.401       .  A
C1093      H1100   1.084       .  S
C1094      C1095   1.421       .  A
C1095      C1096   1.401       .  A
C1095      N1102   1.437       .  S
C1096      C1097   1.396       .  A
C1096      H1101   1.084       .  S
C1097      C1098   1.420       .  A
C1098      N1099   1.438       .  S
N1099      O1103   1.263       .  A
N1099      O1104   1.263       .  A
N1102      O1106   1.263       .  A
N1102      O1105   1.263       .  A
C1107      C1108   1.394       .  A
C1107      C1112   1.401       .  A
C1107      H1114   1.083       .  S
C1108      C1109   1.414       .  A
C1109      C1110   1.401       .  A
C1109      N1116   1.435       .  S
C1110      C1111   1.402       .  A
C1110      H1115   1.084       .  S
C1111      C1112   1.426       .  A
C1112      N1113   1.435       .  S
N1113      O1117   1.263       .  A
N1113      O1118   1.263       .  A
N1116      O1120   1.262       .  A
N1116      O1119   1.262       .  A
C1121      C1122   1.413       .  A
C1121      C1126   1.400       .  A
C1121      H1128   1.083       .  S
C1122      C1123   1.410       .  A
C1123      C1124   1.401       .  A
C1123      N1130   1.432       .  S
C1124      C1125   1.413       .  A
C1124      H1129   1.083       .  S
C1125      C1126   1.410       .  A
C1126      N1127   1.433       .  S
N1127      O1131   1.262       .  A
N1127      O1132   1.262       .  A
N1130      O1134   1.262       .  A
N1130      O1133   1.262       .  A
C1135      C1136   1.402   1_565  A
C1135      C1140   1.404       .  A
C1135      H2486   1.083       .  S
C1136      C1763   1.491   1_545  S
C1136      C1137   1.426       .  A
C1137      C1138   1.403       .  A
C1137      N1144   1.435       .  S
C1138      C1139   1.395       .  A
C1138      H1143   1.084       .  S
C1139      C1140   1.418   1_545  A
C1140      N1141   1.438       .  S
N1141      O2489   1.263       .  A
N1141      O1146   1.262       .  A
H1142      C2479   1.084       .  S
N1144      O1148   1.263       .  A
N1144      O1147   1.263       .  A
O1145      N2485   1.262       .  A
C1149      C1150   1.410       .  A
C1149      C1154   1.405       .  A
C1149      H1156   1.084       .  S
C1150      C1151   1.409       .  A
C1151      C1152   1.403       .  A
C1151      N1158   1.437       .  S
C1152      C1153   1.414       .  A
C1152      H1157   1.083       .  S
C1153      C1154   1.412       .  A
C1154      N1155   1.435       .  S
N1155      O1159   1.263       .  A
N1155      O1160   1.262       .  A
N1158      O1162   1.263       .  A
N1158      O1161   1.263       .  A
C1163      C1164   1.408       .  A
C1163      C1168   1.401       .  A
C1163      H1170   1.084       .  S
C1164      C1165   1.410       .  A
C1165      C1166   1.401       .  A
C1165      N1172   1.435       .  S
C1166      C1167   1.407       .  A
C1166      H1171   1.084       .  S
C1167      C1168   1.410       .  A
C1168      N1169   1.436       .  S
N1169      O1173   1.262       .  A
N1169      O1174   1.262       .  A
N1172      O1176   1.262       .  A
N1172      O1175   1.262       .  A
C1177      C1178   1.395   1_455  A
C1177      C1182   1.403       .  A
C1177      H1184   1.084       .  S
C1178      C1179   1.416       .  A
C1179      C1180   1.403       .  A
C1179      N1186   1.437       .  S
C1180      C1181   1.400   1_655  A
C1180      H1185   1.084       .  S
C1181      C1182   1.424       .  A
C1182      N1183   1.437       .  S
N1183      O1187   1.263       .  A
N1183      O1188   1.263       .  A
N1186      O1190   1.263       .  A
N1186      O1189   1.262       .  A
C1191      C1192   1.414       .  A
C1191      C1196   1.404       .  A
C1191      H1198   1.083       .  S
C1192      C1193   1.412       .  A
C1193      C1194   1.404       .  A
C1193      N1200   1.433       .  S
C1194      C1195   1.411       .  A
C1194      H1199   1.084       .  S
C1195      C1196   1.410       .  A
C1196      N1197   1.435       .  S
N1197      O1201   1.263       .  A
N1197      O1202   1.262       .  A
N1200      O1204   1.262       .  A
N1200      O1203   1.262       .  A
C1205      C1206   1.412       .  A
C1205      C1210   1.399       .  A
C1205      H1212   1.084       .  S
C1206      C1207   1.407       .  A
C1207      C1208   1.403       .  A
C1207      N1214   1.434       .  S
C1208      C1209   1.415       .  A
C1208      H1213   1.083       .  S
C1209      C1210   1.407       .  A
C1210      N1211   1.432       .  S
N1211      O1215   1.262   1_655  A
N1211      O1216   1.262       .  A
N1214      O1218   1.263       .  A
N1214      O1217   1.262   1_655  A
C1219      C1220   1.399       .  A
C1219      C1224   1.402       .  A
C1219      H1226   1.084       .  S
C1220      C1221   1.425       .  A
C1221      C1222   1.401       .  A
C1221      N1228   1.437       .  S
C1222      C1223   1.395       .  A
C1222      H1227   1.084       .  S
C1223      C1224   1.416       .  A
C1224      N1225   1.432       .  S
N1225      O1229   1.262       .  A
N1225      O1230   1.262       .  A
N1228      O1232   1.263       .  A
N1228      O1231   1.263       .  A
C1233      C1234   1.413   1_455  A
C1233      C1238   1.400       .  A
C1233      H1240   1.083       .  S
C1234      C1235   1.409       .  A
C1235      C1236   1.399       .  A
C1235      N1242   1.434       .  S
C1236      C1237   1.413       .  A
C1236      H1241   1.083       .  S
C1237      C1238   1.410   1_655  A
C1238      N1239   1.435       .  S
N1239      O1243   1.262   1_455  A
N1239      O1244   1.263       .  A
N1242      O1246   1.262       .  A
N1242      O1245   1.262       .  A
C1247      C1248   1.410       .  A
C1247      C1252   1.401       .  A
C1247      H1254   1.084       .  S
C1248      C1249   1.401       .  A
C1249      C1250   1.399       .  A
C1249      N1256   1.429       .  S
C1250      C1251   1.416       .  A
C1250      H1255   1.083       .  S
C1251      C1252   1.410       .  A
C1252      N1253   1.432       .  S
N1253      O1257   1.262       .  A
N1253      O1258   1.262       .  A
N1256      O1260   1.262       .  A
N1256      O1259   1.262       .  A
C1261      C1262   1.400       .  A
C1261      C1266   1.400       .  A
C1261      H1268   1.084       .  S
C1262      C1263   1.425       .  A
C1263      C1264   1.400       .  A
C1263      N1270   1.433       .  S
C1264      C1265   1.397       .  A
C1264      H1269   1.084       .  S
C1265      C1266   1.418       .  A
C1266      N1267   1.429       .  S
N1267      O1271   1.262       .  A
N1267      O1272   1.262       .  A
N1270      O1274   1.262       .  A
N1270      O1273   1.263       .  A
C1275      C1276   1.399   1_565  A
C1275      C1280   1.406   1_565  A
C1275      H2626   1.084       .  S
C1276      C1370   1.476   1_545  S
C1276      C1277   1.416       .  A
C1277      C1278   1.404       .  A
C1277      N1284   1.437       .  S
C1278      C1279   1.399       .  A
C1278      H1283   1.084       .  S
C1279      C1280   1.418       .  A
C1280      N1281   1.436       .  S
N1281      O1285   1.262   1_545  A
N1281      O1286   1.262       .  A
H1282      C2619   1.084       .  S
N1284      O1288   1.263       .  A
N1284      O1287   1.262       .  A
C1289      C1290   1.414       .  A
C1289      C1294   1.397       .  A
C1289      H1296   1.084       .  S
C1290      C1291   1.408   1_545  A
C1291      C1292   1.400       .  A
C1291      N2642   1.431       .  S
C1292      C1293   1.411   1_565  A
C1292      H1297   1.084       .  S
C1293      C1294   1.403       .  A
C1294      N1295   1.429       .  S
N1295      O1299   1.262       .  A
N1295      O1300   1.262       .  A
N1298      C2635   1.433       .  S
N1298      O1302   1.262       .  A
N1298      O1301   1.262       .  A
C1303      C1304   1.413       .  A
C1303      C1308   1.399       .  A
C1303      H1310   1.083       .  S
C1304      C1305   1.409   1_545  A
C1305      C1306   1.401       .  A
C1305      N1312   1.433       .  S
C1306      C1307   1.414   1_565  A
C1306      H1311   1.083       .  S
C1307      C1308   1.406       .  A
C1308      N1309   1.430       .  S
N1309      O1313   1.262       .  A
N1309      O1314   1.262       .  A
N1312      O2660   1.262       .  A
N1312      O2659   1.262       .  A
O1315      N2656   1.262       .  A
O1316      N2656   1.262       .  A
C1317      C1318   1.415       .  A
C1317      C1322   1.403       .  A
C1317      H1324   1.083       .  S
C1318      C1319   1.410       .  A
C1319      C1320   1.402       .  A
C1319      N1326   1.430       .  S
C1320      C1321   1.410       .  A
C1320      H1325   1.084       .  S
C1321      C1322   1.405       .  A
C1322      N1323   1.429       .  S
N1323      O1327   1.262       .  A
N1323      O1328   1.262       .  A
N1326      O1330   1.262       .  A
N1326      O1329   1.262       .  A
C1331      C1332   1.397       .  A
C1331      C1336   1.402       .  A
C1331      H1338   1.084       .  S
C1332      C2677   1.420       .  A
C1333      C1334   1.398       .  A
C1333      C2676   1.420   1_545  A
C1333      N1340   1.438       .  S
C1334      C2679   1.396   1_545  A
C1334      H1339   1.084       .  S
C1335      C1336   1.421       .  A
C1335      C2678   1.396       .  A
C1336      N1337   1.437       .  S
N1337      O1341   1.263       .  A
N1337      O1342   1.263       .  A
N1340      O1344   1.263       .  A
N1340      O1343   1.263       .  A
O1345     Ni1353   1.949       .  S
O1345      C1355   1.290       .  A
O1346     Ni1353   1.948       .  S
O1347     Ni1353   1.878       .  S
O1347      C1357   1.272       .  A
O1348     Ni1353   1.874       .  S
O1349     Ni1354   1.940       .  S
O1349      C1358   1.288       .  A
O1350     Ni1354   1.942       .  S
O1351     Ni1354   1.892       .  S
O1351      C1356   1.275       .  A
O1352      C1355   1.272       .  A
C1355      C2651   1.491       .  S
C1356      C2665   1.489       .  S
C1357      C2634   1.485       .  S
C1358      C2676   1.470       .  S
O1359     Ni1367   1.943       .  S
O1359      C1369   1.289       .  A
O1360     Ni1367   1.945       .  S
O1360      C1370   1.288       .  A
O1361     Ni1367   1.880       .  S
O1361      C1371   1.272       .  A
O1362     Ni1367   1.879       .  S
O1362      C1372   1.272       .  A
O1363     Ni1368   1.941   1_565  S
O1363      C1372   1.288       .  A
O1364     Ni1368   1.935       .  S
O1364      C1371   1.287   1_545  A
O1365     Ni1368   1.895       .  S
O1365      C1370   1.274   1_545  A
O1366     Ni1368   1.886   1_565  S
O1366      C1369   1.272       .  A
Ni1367    Ni1368   2.388   1_565  S
C1369      C2606   1.483       .  S
C1371      C2679   1.472       .  S
C1372      C2595   1.479       .  S
O1373     Ni1381   1.941   1_455  S
O1373      C1383   1.288       .  A
O1374     Ni1381   1.942       .  S
O1374      C1384   1.288       .  A
O1375     Ni1381   1.886       .  S
O1375      C1385   1.274       .  A
O1376     Ni1381   1.880       .  S
O1376      C1386   1.273       .  A
O1377     Ni1382   1.942       .  S
O1377      C1386   1.288       .  A
O1378     Ni1382   1.944       .  S
O1378      C1385   1.288       .  A
O1379     Ni1382   1.897       .  S
O1379      C1384   1.275       .  A
O1380     Ni1382   1.888   1_455  S
O1380      C1383   1.273       .  A
Ni1381    Ni1382   2.381       .  S
C1383      C2567   1.480       .  S
C1384      C2662   1.494       .  S
C1385      C2553   1.493       .  S
C1386      C2581   1.488       .  S
O1387     Ni1395   1.944   1_655  S
O1387      C1397   1.288       .  A
O1388     Ni1395   1.947       .  S
O1388      C1398   1.290       .  A
O1389     Ni1395   1.884       .  S
O1389      C1399   1.274       .  A
O1390     Ni1395   1.888       .  S
O1390      C1400   1.272   1_455  A
O1391     Ni1396   1.944       .  S
O1391      C1400   1.288       .  A
O1392     Ni1396   1.937       .  S
O1392      C1399   1.287   1_655  A
O1393     Ni1396   1.894   1_455  S
O1393      C1398   1.275       .  A
O1394     Ni1396   1.886       .  S
O1394      C1397   1.274       .  A
Ni1395    Ni1396   2.384   1_455  S
C1397      C2609   1.477       .  S
C1398      C2536   1.497       .  S
C1399      C2578   1.488   1_455  S
C1400      C2522   1.471       .  S
O1401     Ni1409   1.947       .  S
O1401      C1411   1.289       .  A
O1402     Ni1409   1.945       .  S
O1402      C1412   1.290       .  A
O1403     Ni1409   1.879       .  S
O1403      C1413   1.270       .  A
O1404     Ni1409   1.877       .  S
O1404      C1414   1.270       .  A
O1405     Ni1410   1.941       .  S
O1405      C1414   1.288       .  A
O1406     Ni1410   1.944       .  S
O1406      C1413   1.289       .  A
O1407     Ni1410   1.890       .  S
O1407      C1412   1.274       .  A
O1408     Ni1410   1.880       .  S
O1408      C1411   1.272       .  A
Ni1409    Ni1410   2.386       .  S
C1411      C2648   1.487       .  S
C1412      C2494   1.486       .  S
C1413      C2483   1.479       .  S
C1414      C2508   1.467       .  S
O1415     Ni1423   1.948       .  S
O1415      C1425   1.290       .  A
O1416     Ni1423   1.947       .  S
O1416      C1426   1.290       .  A
O1417     Ni1423   1.872       .  S
O1417      C1427   1.270       .  A
O1418     Ni1423   1.878       .  S
O1418      C1428   1.270       .  A
O1419     Ni1424   1.945       .  S
O1419      C1428   1.290       .  A
O1420     Ni1424   1.943       .  S
O1420      C1427   1.288       .  A
O1421     Ni1424   1.895       .  S
O1421      C1426   1.274       .  A
O1422     Ni1424   1.886       .  S
O1422      C1425   1.273       .  A
Ni1423    Ni1424   2.385       .  S
C1425      C2469   1.492       .  S
C1426      C2623   1.489       .  S
C1427      C2511   1.466       .  S
C1428      C2452   1.482       .  S
O1429     Ni1437   1.950       .  S
O1429      C1439   1.291       .  A
O1430     Ni1437   1.947       .  S
O1430      C1440   1.289       .  A
O1431     Ni1437   1.876       .  S
O1431      C1441   1.272       .  A
O1432     Ni1437   1.875       .  S
O1432      C1442   1.270       .  A
O1433     Ni1438   1.941       .  S
O1433      C1442   1.289       .  A
O1434     Ni1438   1.946       .  S
O1434      C1441   1.288       .  A
O1435     Ni1438   1.888       .  S
O1435      C1440   1.274       .  A
O1436     Ni1438   1.879       .  S
O1436      C1439   1.270       .  A
Ni1437    Ni1438   2.381       .  S
C1439      C2564   1.488       .  S
C1440      C2497   1.491       .  S
C1441      C2424   1.488       .  S
C1442      C2438   1.477       .  S
O1443     Ni1451   1.952       .  S
O1443      C1453   1.291       .  A
O1444     Ni1451   1.951       .  S
O1444      C1454   1.290       .  A
O1445     Ni1451   1.874       .  S
O1445      C1455   1.270       .  A
O1446     Ni1451   1.877       .  S
O1446      C1456   1.272       .  A
O1447     Ni1452   1.941       .  S
O1447      C1456   1.288       .  A
O1448     Ni1452   1.942       .  S
O1448      C1455   1.289       .  A
O1449     Ni1452   1.889       .  S
O1449      C1454   1.274       .  A
O1450     Ni1452   1.879       .  S
O1450      C1453   1.272       .  A
Ni1451    Ni1452   2.383       .  S
C1453      C2466   1.490       .  S
C1454      C2539   1.495       .  S
C1455      C2441   1.476       .  S
C1456      C2410   1.479       .  S
O1457     Ni1465   1.947       .  S
O1457      C1467   1.289       .  A
O1458     Ni1465   1.950       .  S
O1458      C1468   1.291   1_565  A
O1459     Ni1465   1.881       .  S
O1459      C1469   1.272       .  A
O1460     Ni1465   1.885       .  S
O1460      C1470   1.273       .  A
O1461     Ni1466   1.948   1_565  S
O1461      C1470   1.289       .  A
O1462     Ni1466   1.946       .  S
O1462      C1469   1.289   1_545  A
O1463     Ni1466   1.889       .  S
O1463      C1468   1.272       .  A
O1464     Ni1466   1.877   1_565  S
O1464      C1467   1.272       .  A
Ni1465    Ni1466   2.382   1_565  S
C1467      C2368   1.486       .  S
C1469      C2396   1.480       .  S
C1470      C2354   1.487       .  S
O1471     Ni1479   1.947       .  S
O1471      C1481   1.290       .  A
O1472      C1482   1.290   1_545  A
O1473     Ni1479   1.880       .  S
O1473      C1483   1.270       .  A
O1474      C1484   1.272   1_545  A
O1475     Ni1480   1.942       .  S
O1475      C1484   1.289       .  A
O1476     Ni1480   1.944       .  S
O1477     Ni1480   1.894       .  S
O1477      C1482   1.274       .  A
O1478     Ni1480   1.887       .  S
C1481      C2329   1.485       .  S
C1482      C2340   1.487       .  S
C1483      C2312   1.463       .  S
C1484      C2399   1.479       .  S
O1485     Ni1493   1.941       .  S
O1485      C1495   1.288       .  A
O1486     Ni1493   1.946       .  S
O1486      C1496   1.289       .  A
O1487     Ni1493   1.876       .  S
O1487      C1497   1.272       .  A
O1488     Ni1493   1.881       .  S
O1488      C1498   1.270       .  A
O1489     Ni1494   1.939       .  S
O1489      C1498   1.289       .  A
O1490     Ni1494   1.937       .  S
O1490      C1497   1.287       .  A
O1491     Ni1494   1.888       .  S
O1491      C1496   1.273       .  A
O1492     Ni1494   1.885       .  S
O1492      C1495   1.273       .  A
Ni1493    Ni1494   2.384       .  S
C1495      C2371   1.479       .  S
C1496      C2284   1.486       .  S
C1497      C2298   1.481       .  S
C1498      C2270   1.483       .  S
O1499     Ni1507   1.939       .  S
O1499      C1509   1.288       .  A
O1500     Ni1507   1.948       .  S
O1500      C1510   1.289       .  A
O1501     Ni1507   1.887       .  S
O1501      C1511   1.273       .  A
O1502     Ni1507   1.884       .  S
O1502      C1512   1.274       .  A
O1503     Ni1508   1.930       .  S
O1503      C1512   1.286       .  A
O1504     Ni1508   1.939       .  S
O1504      C1511   1.287       .  A
O1505     Ni1508   1.897       .  S
O1505      C1510   1.275       .  A
O1506     Ni1508   1.893       .  S
O1506      C1509   1.275       .  A
Ni1507    Ni1508   2.388       .  S
C1509      C2256   1.478       .  S
C1510      C2343   1.483       .  S
C1511      C2242   1.469       .  S
C1512      C2301   1.481       .  S
O1513     Ni1521   1.948       .  S
O1513      C1523   1.290       .  A
O1514     Ni1521   1.945       .  S
O1514      C1524   1.290       .  A
O1515     Ni1521   1.872       .  S
O1515      C1525   1.271       .  A
O1516     Ni1521   1.872       .  S
O1516      C1526   1.270       .  A
O1517     Ni1522   1.944       .  S
O1517      C1526   1.289       .  A
O1518     Ni1522   1.949       .  S
O1518      C1525   1.289       .  A
O1519     Ni1522   1.893       .  S
O1519      C1524   1.274       .  A
O1520     Ni1522   1.881       .  S
O1520      C1523   1.271       .  A
Ni1521    Ni1522   2.382       .  S
C1523      C2259   1.484       .  S
C1524      C2214   1.493       .  S
C1525      C2200   1.489       .  S
C1526      C2228   1.477       .  S
O1527     Ni1535   1.946       .  S
O1527      C1537   1.289       .  A
O1528     Ni1535   1.946       .  S
O1528      C1538   1.290       .  A
O1529     Ni1535   1.877       .  S
O1529      C1539   1.271       .  A
O1530     Ni1535   1.881       .  S
O1530      C1540   1.272       .  A
O1531     Ni1536   1.945       .  S
O1531      C1540   1.289       .  A
O1532     Ni1536   1.941       .  S
O1532      C1539   1.289       .  A
O1533     Ni1536   1.890       .  S
O1533      C1538   1.273       .  A
O1534     Ni1536   1.879       .  S
O1534      C1537   1.272       .  A
Ni1535    Ni1536   2.385       .  S
C1537      C2186   1.481       .  S
C1538      C2287   1.493       .  S
C1539      C2231   1.477       .  S
C1540      C2172   1.481       .  S
O1541     Ni1549   1.943   1_455  S
O1541      C1551   1.289       .  A
O1542     Ni1549   1.951       .  S
O1542      C1552   1.290       .  A
O1543     Ni1549   1.886       .  S
O1543      C1553   1.272       .  A
O1544     Ni1549   1.882       .  S
O1544      C1554   1.272       .  A
O1545     Ni1550   1.940       .  S
O1545      C1554   1.288       .  A
O1546     Ni1550   1.942       .  S
O1546      C1553   1.287       .  A
O1547     Ni1550   1.885       .  S
O1547      C1552   1.273       .  A
O1548     Ni1550   1.884   1_455  S
O1548      C1551   1.273       .  A
Ni1549    Ni1550   2.387       .  S
C1551      C2326   1.489       .  S
C1552      C2217   1.488       .  S
C1553      C2144   1.470       .  S
C1554      C2158   1.472       .  S
O1555     Ni1563   1.944       .  S
O1555      C1565   1.288       .  A
O1556     Ni1563   1.948   1_455  S
O1556      C1566   1.290       .  A
O1557     Ni1563   1.874       .  S
O1557      C1567   1.271       .  A
O1558     Ni1563   1.878       .  S
O1558      C1568   1.272       .  A
O1559     Ni1564   1.949       .  S
O1559      C1568   1.290       .  A
O1560     Ni1564   1.946       .  S
O1560      C1567   1.288       .  A
O1561     Ni1564   1.889   1_455  S
O1561      C1566   1.273       .  A
O1562     Ni1564   1.884       .  S
O1562      C1565   1.273       .  A
Ni1563    Ni1564   2.382       .  S
C1565      C2189   1.490       .  S
C1566      C2382   1.493       .  S
C1567      C2161   1.472       .  S
C1568      C2133   1.488       .  S
O1569     Ni1577   1.949       .  S
O1569      C1579   1.289       .  A
O1570     Ni1577   1.954       .  S
O1570      C1580   1.291       .  A
O1571     Ni1577   1.882       .  S
O1571      C1581   1.272       .  A
O1572     Ni1577   1.876       .  S
O1572      C1582   1.270       .  A
O1573     Ni1578   1.942       .  S
O1573      C1582   1.288       .  A
O1574     Ni1578   1.940       .  S
O1574      C1581   1.287       .  A
O1575     Ni1578   1.894       .  S
O1575      C1580   1.274       .  A
O1576     Ni1578   1.888       .  S
O1576      C1579   1.274       .  A
Ni1577    Ni1578   2.383       .  S
C1579      C2088   1.492       .  S
C1580      C2105   1.494       .  S
C1581      C2203   1.476       .  S
C1582      C2116   1.473       .  S
O1583     Ni1591   1.949       .  S
O1583      C1593   1.290       .  A
O1584     Ni1591   1.954       .  S
O1584      C1594   1.291       .  A
O1585     Ni1591   1.879       .  S
O1585      C1595   1.271       .  A
O1586     Ni1591   1.881       .  S
O1586      C1596   1.272       .  A
O1587     Ni1592   1.940       .  S
O1587      C1596   1.288       .  A
O1588     Ni1592   1.937       .  S
O1588      C1595   1.288       .  A
O1589     Ni1592   1.889       .  S
O1589      C1594   1.274       .  A
O1590     Ni1592   1.884       .  S
O1590      C1593   1.272       .  A
Ni1591    Ni1592   2.385       .  S
C1593      C2060   1.478       .  S
C1594      C2074   1.495       .  S
C1595      C2119   1.471       .  S
C1596      C2592   1.486       .  S
O1597     Ni1605   1.951   1_655  S
O1597      C1607   1.291       .  A
O1598     Ni1605   1.951       .  S
O1598      C1608   1.290   1_565  A
O1599     Ni1605   1.870       .  S
O1599      C1609   1.270       .  A
O1600     Ni1605   1.873       .  S
O1600      C1610   1.270       .  A
O1601     Ni1606   1.954       .  S
O1601      C1610   1.291   1_545  A
O1602     Ni1606   1.950   1_655  S
O1602      C1609   1.290   1_645  A
O1603     Ni1606   1.891       .  S
O1603      C1608   1.274       .  A
O1604     Ni1606   1.882   1_665  S
O1604      C1607   1.271       .  A
Ni1605    Ni1606   2.382   1_565  S
C1607      C2063   1.485       .  S
C1609      C2046   1.487       .  S
C1610      C2525   1.485       .  S
O1611     Ni1619   1.946   1_455  S
O1611      C1621   1.290       .  A
O1612      C1622   1.289   1_545  A
O1613     Ni1619   1.887       .  S
O1614      C1624   1.273   1_545  A
O1615     Ni1620   1.936       .  S
O1615      C1624   1.288       .  A
O1616     Ni1620   1.944       .  S
O1616      C1623   1.288   1_565  A
O1617     Ni1620   1.900       .  S
O1617      C1622   1.275       .  A
O1618     Ni1620   1.893   1_455  S
C1621      C2018   1.489       .  S
C1622      C2102   1.487       .  S
C1624      C2049   1.486       .  S
O1625     Ni1633   1.940       .  S
O1625      C1635   1.288       .  A
O1626     Ni1633   1.948       .  S
O1626      C1636   1.290       .  A
O1627     Ni1633   1.873       .  S
O1627      C1637   1.270       .  A
O1628     Ni1633   1.878       .  S
O1628      C1638   1.270       .  A
O1629     Ni1634   1.936       .  S
O1629      C1638   1.286       .  A
O1630     Ni1634   1.938       .  S
O1630      C1637   1.287       .  A
O1631     Ni1634   1.893       .  S
O1631      C1636   1.275       .  A
O1632     Ni1634   1.893       .  S
O1632      C1635   1.275       .  A
Ni1633    Ni1634   2.387       .  S
C1635      C1990   1.492       .  S
C1636      C2035   1.496       .  S
C1637      C2007   1.463       .  S
C1638      C2413   1.461       .  S
O1639     Ni1647   1.947       .  S
O1639      C1649   1.290       .  A
O1640     Ni1647   1.953       .  S
O1640      C1650   1.290       .  A
O1641     Ni1647   1.873       .  S
O1641      C1651   1.271       .  A
O1642     Ni1647   1.867       .  S
O1642      C1652   1.269       .  A
O1643     Ni1648   1.941       .  S
O1643      C1652   1.287       .  A
O1644     Ni1648   1.941       .  S
O1644      C1651   1.288       .  A
O1645     Ni1648   1.888       .  S
O1645      C1650   1.274       .  A
O1646     Ni1648   1.885       .  S
O1646      C1649   1.273       .  A
Ni1647    Ni1648   2.385       .  S
C1649      C2021   1.492       .  S
C1650      C1976   1.494       .  S
C1651      C2315   1.478       .  S
C1652      C2004   1.462       .  S
O1653     Ni1661   1.945       .  S
O1653      C1663   1.289       .  A
O1654     Ni1661   1.946       .  S
O1654      C1664   1.289       .  A
O1655     Ni1661   1.878       .  S
O1655      C1665   1.271       .  A
O1656     Ni1661   1.876       .  S
O1656      C1666   1.271       .  A
O1657     Ni1662   1.938       .  S
O1657      C1666   1.288       .  A
O1658     Ni1662   1.946       .  S
O1658      C1665   1.290       .  A
O1659     Ni1662   1.896       .  S
O1659      C1664   1.275       .  A
O1660     Ni1662   1.890       .  S
O1660      C1663   1.274       .  A
Ni1661    Ni1662   2.386       .  S
C1663      C2091   1.479       .  S
C1664      C1979   1.490       .  S
C1665      C2245   1.483       .  S
C1666      C1962   1.472       .  S
O1667     Ni1675   1.944       .  S
O1667      C1677   1.288       .  A
O1668     Ni1675   1.943       .  S
O1668      C1678   1.289       .  A
O1669     Ni1675   1.876       .  S
O1669      C1679   1.271       .  A
O1670     Ni1675   1.883       .  S
O1670      C1680   1.271       .  A
O1671     Ni1676   1.942       .  S
O1671      C1680   1.289       .  A
O1672     Ni1676   1.938       .  S
O1672      C1679   1.288       .  A
O1673     Ni1676   1.900       .  S
O1673      C1678   1.276       .  A
O1674     Ni1676   1.890       .  S
O1674      C1677   1.275       .  A
Ni1675    Ni1676   2.382       .  S
C1677      C1993   1.491       .  S
C1678      C2077   1.497       .  S
C1679      C1965   1.472       .  S
C1680      C2455   1.484       .  S
O1681     Ni1689   1.950       .  S
O1681      C1691   1.291       .  A
O1682     Ni1689   1.952       .  S
O1682      C1692   1.290       .  A
O1683     Ni1689   1.876       .  S
O1683      C1693   1.272       .  A
O1684     Ni1689   1.880       .  S
O1684      C1694   1.272       .  A
O1685     Ni1690   1.955       .  S
O1685      C1694   1.291       .  A
O1686     Ni1690   1.947       .  S
O1686      C1693   1.289       .  A
O1687     Ni1690   1.892       .  S
O1687      C1692   1.273       .  A
O1688     Ni1690   1.885       .  S
O1688      C1691   1.272       .  A
Ni1689    Ni1690   2.383       .  S
C1691      C1923   1.489       .  S
C1692      C1934   1.482       .  S
C1693      C1948   1.486       .  S
C1694      C2357   1.494       .  S
O1695     Ni1703   1.951       .  S
O1695      C1705   1.290       .  A
O1696     Ni1703   1.957       .  S
O1696      C1706   1.292       .  A
O1697     Ni1703   1.888       .  S
O1697      C1707   1.273       .  A
O1698     Ni1703   1.890       .  S
O1698      C1708   1.274       .  A
O1699     Ni1704   1.935       .  S
O1699      C1708   1.288       .  A
O1700     Ni1704   1.936       .  S
O1700      C1707   1.286       .  A
O1701     Ni1704   1.887       .  S
O1701      C1706   1.272       .  A
O1702     Ni1704   1.879       .  S
O1702      C1705   1.272       .  A
Ni1703    Ni1704   2.385       .  S
C1705      C1892   1.481       .  S
C1706      C1906   1.494       .  S
C1707      C2427   1.470       .  S
C1708      C1951   1.486       .  S
O1709     Ni1717   1.954       .  S
O1709      C1719   1.292       .  A
O1710     Ni1717   1.954       .  S
O1710      C1720   1.291       .  A
O1711     Ni1717   1.873       .  S
O1711      C1721   1.270       .  A
O1712     Ni1717   1.879       .  S
O1712      C1722   1.272       .  A
O1713     Ni1718   1.947       .  S
O1713      C1722   1.290       .  A
O1714     Ni1718   1.946       .  S
O1714      C1721   1.289       .  A
O1715     Ni1718   1.895       .  S
O1715      C1720   1.275       .  A
O1716     Ni1718   1.883       .  S
O1716      C1719   1.271       .  A
Ni1717    Ni1718   2.381       .  S
C1719      C1850   1.494       .  S
C1720      C1864   1.499       .  S
C1721      C1878   1.474       .  S
C1722      C2175   1.488       .  S
O1723     Ni1731   1.946       .  S
O1723      C1733   1.289       .  A
O1724     Ni1731   1.948       .  S
O1724      C1734   1.290       .  A
O1725     Ni1731   1.885       .  S
O1725      C1735   1.273       .  A
O1726     Ni1731   1.883       .  S
O1726      C1736   1.272       .  A
O1727     Ni1732   1.939       .  S
O1727      C1736   1.288       .  A
O1728     Ni1732   1.942       .  S
O1728      C1735   1.288       .  A
O1729     Ni1732   1.891       .  S
O1729      C1734   1.274       .  A
O1730     Ni1732   1.881       .  S
O1730      C1733   1.272       .  A
Ni1731    Ni1732   2.385       .  S
C1733      C1822   1.483       .  S
C1734      C1836   1.488       .  S
C1735      C2637   1.487       .  S
C1736      C1881   1.476       .  S
O1737     Ni1745   1.949       .  S
O1737      C1747   1.290       .  A
O1738     Ni1745   1.949       .  S
O1738      C1748   1.290       .  A
O1739     Ni1745   1.880       .  S
O1739      C1749   1.271       .  A
O1740     Ni1745   1.882       .  S
O1740      C1750   1.272       .  A
O1741     Ni1746   1.941       .  S
O1741      C1750   1.288       .  A
O1742     Ni1746   1.937       .  S
O1742      C1749   1.288       .  A
O1743     Ni1746   1.896   1_545  S
O1743      C1748   1.275   1_545  A
O1744     Ni1746   1.886       .  S
O1744      C1747   1.273       .  A
Ni1745    Ni1746   2.385       .  S
C1747      C1920   1.482       .  S
C1749      C1808   1.471       .  S
C1750      C2273   1.479       .  S
O1751     Ni1759   1.945       .  S
O1751      C1761   1.289       .  A
O1752      C1762   1.289       .  A
O1753     Ni1759   1.880       .  S
O1754      C1764   1.271       .  A
O1755     Ni1760   1.945       .  S
O1755      C1764   1.288       .  A
O1756     Ni1760   1.948       .  S
O1756      C1763   1.291       .  A
O1757     Ni1760   1.895       .  S
O1757      C1762   1.274       .  A
O1758     Ni1760   1.886       .  S
C1761      C1825   1.491       .  S
C1762      C1909   1.485       .  S
C1764      C1811   1.471       .  S
O1765     Ni1773   1.949       .  S
O1765      C1775   1.291       .  A
O1766     Ni1773   1.951   1_455  S
O1766      C1776   1.290       .  A
O1767     Ni1773   1.882       .  S
O1767      C1777   1.272       .  A
O1768     Ni1773   1.887       .  S
O1768      C1778   1.273       .  A
O1769     Ni1774   1.938       .  S
O1769      C1778   1.286       .  A
O1770     Ni1774   1.941       .  S
O1770      C1777   1.288       .  A
O1771     Ni1774   1.897   1_455  S
O1771      C1776   1.274       .  A
O1772     Ni1774   1.887       .  S
O1772      C1775   1.272       .  A
Ni1773    Ni1774   2.386       .  S
C1775      C1853   1.489       .  S
C1776      C1937   1.489       .  S
C1777      C1797   1.472       .  S
C1778      C2130   1.474       .  S
O1779     Ni1787   1.943   1_455  S
O1779      C1789   1.288       .  A
O1780     Ni1787   1.941       .  S
O1780      C1790   1.288       .  A
O1781     Ni1787   1.885       .  S
O1781      C1791   1.273       .  A
O1782     Ni1787   1.880       .  S
O1782      C1792   1.272       .  A
O1783     Ni1788   1.941       .  S
O1783      C1792   1.287       .  A
O1784     Ni1788   1.946       .  S
O1784      C1791   1.289       .  A
O1785     Ni1788   1.897       .  S
O1785      C1790   1.276       .  A
O1786     Ni1788   1.893   1_455  S
O1786      C1789   1.274       .  A
Ni1787    Ni1788   2.386       .  S
C1789      C1895   1.475       .  S
C1790      C1839   1.496       .  S
C1791      C2550   1.481       .  S
C1792      C1794   1.470       .  S
C1793      C1794   1.396   1_455  A
C1793      C1798   1.401   1_554  A
C1793      H1800   1.082       .  S
C1794      C1795   1.417       .  A
C1795      C1796   1.402   1_554  A
C1795      N1802   1.440       .  S
C1796      C1797   1.398       .  A
C1796      H1801   1.084       .  S
C1797      C1798   1.419   1_655  A
C1798      N1799   1.438       .  S
N1799      O1803   1.262       .  A
N1799      O1804   1.263       .  A
N1802      O1806   1.263       .  A
N1802      O1805   1.263       .  A
C1807      C1808   1.395       .  A
C1807      C1812   1.397   1_556  A
C1807      H1814   1.084   1_565  S
C1808      C1809   1.421       .  A
C1809      C1810   1.402   1_556  A
C1809      N1816   1.437       .  S
C1810      C1811   1.396       .  A
C1810      H1815   1.083       .  S
C1811      C1812   1.419       .  A
C1812      N1813   1.437   1_565  S
N1813      O1817   1.262       .  A
N1816      O1820   1.263       .  A
N1816      O1819   1.263       .  A
C1821      C1822   1.411       .  A
C1821      C1826   1.402       .  A
C1821      H1828   1.084       .  S
C1822      C1823   1.406       .  A
C1823      C1824   1.401       .  A
C1824      C1825   1.415       .  A
C1825      C1826   1.411       .  A
C1826      N1827   1.433       .  S
N1827      O1831   1.262       .  A
N1827      O1832   1.262       .  A
N1830      O1834   1.262       .  A
N1830      O1833   1.262       .  A
C1835      C1836   1.410       .  A
C1835      C1840   1.404       .  A
C1835      H1842   1.084       .  S
C1836      C1837   1.409       .  A
C1837      C1838   1.406       .  A
C1837      N1844   1.435       .  S
C1838      C1839   1.414       .  A
C1838      H1843   1.083       .  S
C1839      C1840   1.414       .  A
C1840      N1841   1.434       .  S
N1841      O1845   1.262       .  A
N1841      O1846   1.262       .  A
N1844      O1848   1.263       .  A
N1844      O1847   1.262       .  A
C1849      C1850   1.400       .  A
C1849      C1854   1.404       .  A
C1849      H1856   1.083       .  S
C1850      C1851   1.425       .  A
C1851      C1852   1.400       .  A
C1851      N1858   1.430       .  S
C1852      C1853   1.398       .  A
C1852      H1857   1.084       .  S
C1853      C1854   1.423       .  A
C1854      N1855   1.433       .  S
N1855      O1859   1.262       .  A
N1855      O1860   1.262       .  A
N1858      O1862   1.262       .  A
N1858      O1861   1.262       .  A
C1863      C1864   1.414       .  A
C1863      C1868   1.406       .  A
C1863      H1870   1.083       .  S
C1864      C1865   1.409       .  A
C1865      C1866   1.406       .  A
C1865      N1872   1.429       .  S
C1866      C1867   1.415       .  A
C1866      H1871   1.083       .  S
C1867      C1868   1.412       .  A
N1869      O1873   1.263       .  A
N1869      O1874   1.262       .  A
N1872      O1876   1.262       .  A
N1872      O1875   1.262       .  A
C1877      C1878   1.408       .  A
C1877      C1882   1.397   1_556  A
C1877      H1884   1.084       .  S
C1878      C1879   1.405       .  A
C1879      C1880   1.401       .  A
C1879      N1886   1.429       .  S
C1880      C1881   1.411   1_556  A
C1880      H1885   1.084   1_556  S
C1881      C1882   1.407       .  A
C1882      N1883   1.432       .  S
N1883      O1887   1.262       .  A
N1883      O1888   1.262       .  A
N1886      O1890   1.262       .  A
N1886      O1889   1.262       .  A
C1891      C1892   1.399       .  A
C1891      C1896   1.406       .  A
C1891      H1898   1.084       .  S
C1892      C1893   1.422       .  A
C1893      C1894   1.401       .  A
C1893      N1900   1.438       .  S
C1894      C1895   1.396       .  A
C1894      H1899   1.084       .  S
C1895      C1896   1.417       .  A
C1896      N1897   1.434       .  S
N1897      O1901   1.261       .  A
N1897      O1902   1.263       .  A
N1900      O1904   1.263       .  A
N1900      O1903   1.263       .  A
C1905      C1906   1.401       .  A
C1905      C1910   1.406       .  A
C1905      H1912   1.084       .  S
C1906      C1907   1.424       .  A
C1907      C1908   1.402       .  A
C1907      N1914   1.430       .  S
C1908      C1909   1.396       .  A
C1908      H1913   1.084       .  S
C1909      C1910   1.419       .  A
C1910      N1911   1.433       .  S
N1911      O1915   1.262       .  A
N1911      O1916   1.262       .  A
N1914      O1918   1.262       .  A
N1914      O1917   1.262       .  A
C1919      C1920   1.396       .  A
C1919      C1924   1.402       .  A
C1919      H1926   1.083       .  S
C1920      C1921   1.420       .  A
C1921      C1922   1.406       .  A
C1921      N1928   1.439       .  S
C1922      C1923   1.401       .  A
C1922      H1927   1.084       .  S
C1923      C1924   1.424       .  A
C1924      N1925   1.436       .  S
N1925      O1929   1.263       .  A
N1925      O1930   1.263       .  A
N1928      O1932   1.263       .  A
N1928      O1931   1.263   1_565  A
C1933      C1934   1.399       .  A
C1933      C1938   1.405       .  A
C1933      H1940   1.084       .  S
C1934      C1935   1.420       .  A
C1935      C1936   1.407       .  A
C1935      N1942   1.440       .  S
C1936      C1937   1.401       .  A
C1936      H1941   1.082       .  S
C1937      C1938   1.419       .  A
C1938      N1939   1.431       .  S
N1939      O1943   1.262       .  A
N1939      O1944   1.262       .  A
N1942      O1946   1.263       .  A
N1942      O1945   1.262       .  A
C1947      C1948   1.412       .  A
C1947      C1952   1.395   1_556  A
C1947      H1954   1.084       .  S
C1948      C1949   1.410       .  A
C1949      C1950   1.405       .  A
C1949      N1956   1.433       .  S
C1950      C1951   1.413   1_556  A
C1950      H1955   1.083   1_556  S
C1951      C1952   1.406       .  A
C1952      N1953   1.429       .  S
N1953      O1957   1.262       .  A
N1953      O1958   1.262       .  A
N1956      O1960   1.262       .  A
N1956      O1959   1.262       .  A
C1961      C1962   1.398       .  A
C1961      C1966   1.400       .  A
C1961      H1968   1.084       .  S
C1962      C1963   1.420       .  A
C1963      C1964   1.400       .  A
C1963      N1970   1.438       .  S
C1964      C1965   1.398       .  A
C1964      H1969   1.084       .  S
C1965      C1966   1.420       .  A
C1966      N1967   1.439       .  S
N1967      O1971   1.263       .  A
N1967      O1972   1.263       .  A
N1970      O1974   1.263       .  A
N1970      O1973   1.263       .  A
C1975      C1976   1.413       .  A
C1975      C1980   1.403       .  A
C1975      H1982   1.083       .  S
C1976      C1977   1.408       .  A
C1977      C1978   1.405       .  A
C1977      N1984   1.429       .  S
C1978      C1979   1.413       .  A
C1978      H1983   1.084       .  S
C1979      C1980   1.410       .  A
C1980      N1981   1.433       .  S
N1981      O1985   1.262       .  A
N1981      O1986   1.262       .  A
N1984      O1988   1.262       .  A
N1984      O1987   1.262       .  A
C1989      C1990   1.413       .  A
C1989      C1994   1.404       .  A
C1989      H1996   1.083       .  S
C1990      C1991   1.409       .  A
C1991      C1992   1.401       .  A
C1991      N1998   1.431       .  S
C1992      C1993   1.412       .  A
C1992      H1997   1.084       .  S
C1993      C1994   1.411       .  A
C1994      N1995   1.434       .  S
N1995      O1999   1.262       .  A
N1995      O2000   1.262       .  A
N1998      O2002   1.262       .  A
N1998      O2001   1.262       .  A
C2003      C2004   1.395       .  A
C2003      C2008   1.399       .  A
C2003      H2010   1.084       .  S
C2004      C2005   1.418       .  A
C2005      C2006   1.398       .  A
C2005      N2012   1.439       .  S
C2006      C2007   1.395       .  A
C2006      H2011   1.084       .  S
C2007      C2008   1.417       .  A
C2008      N2009   1.437       .  S
N2009      O2013   1.262       .  A
N2009      O2014   1.263       .  A
N2012      O2016   1.263       .  A
N2012      O2015   1.263       .  A
C2017      C2018   1.413       .  A
C2017      C2022   1.402       .  A
C2018      C2019   1.407       .  A
C2019      C2020   1.401       .  A
C2019      N2026   1.431       .  S
C2020      C2021   1.414       .  A
C2020      H2025   1.083       .  S
C2021      C2022   1.409       .  A
N2023      O2027   1.262       .  A
N2023      O2028   1.262       .  A
N2026      O2030   1.262       .  A
N2026      O2029   1.262       .  A
C2031      C2032   1.413       .  A
C2031      C2036   1.403       .  A
C2031      H2038   1.083       .  S
C2032      C2033   1.408       .  A
C2033      C2034   1.404       .  A
C2034      C2035   1.415       .  A
C2034      H2039   1.083       .  S
C2035      C2036   1.411       .  A
C2036      N2037   1.432       .  S
N2037      O2041   1.262       .  A
N2037      O2042   1.262       .  A
N2040      O2044   1.262       .  A
N2040      O2043   1.262       .  A
C2045      C2046   1.413       .  A
C2045      C2050   1.396       .  A
C2045      H2052   1.083       .  S
C2046      C2047   1.405   1_465  A
C2047      C2048   1.401       .  A
C2048      C2049   1.415   1_545  A
C2049      C2050   1.408   1_655  A
C2050      N2051   1.432       .  S
N2051      O2055   1.262   1_455  A
N2051      O2056   1.262       .  A
N2054      O2058   1.262       .  A
N2054      O2057   1.262       .  A
C2059      C2060   1.396       .  A
C2059      C2064   1.403       .  A
C2059      H2066   1.084       .  S
C2060      C2061   1.420       .  A
C2061      C2062   1.405       .  A
C2061      N2068   1.439       .  S
C2062      C2063   1.400       .  A
C2062      H2067   1.084       .  S
C2063      C2064   1.423       .  A
C2064      N2065   1.437   1_565  S
N2065      O2069   1.263   1_545  A
N2065      O2070   1.263       .  A
N2068      O2072   1.263       .  A
N2068      O2071   1.263       .  A
C2073      C2074   1.413       .  A
C2073      C2078   1.402       .  A
C2073      H2080   1.083       .  S
C2074      C2075   1.409       .  A
C2075      C2076   1.407       .  A
C2075      N2082   1.430       .  S
C2076      C2077   1.415       .  A
C2076      H2081   1.083       .  S
C2077      C2078   1.410       .  A
C2078      N2079   1.431       .  S
N2079      O2083   1.262       .  A
N2079      O2084   1.262       .  A
N2082      O2086   1.262       .  A
N2082      O2085   1.262       .  A
C2087      C2088   1.415       .  A
C2087      C2092   1.404       .  A
C2087      H2094   1.084       .  S
C2088      C2089   1.413       .  A
C2089      C2090   1.404       .  A
C2089      N2096   1.434       .  S
C2090      C2091   1.408       .  A
C2090      H2095   1.084       .  S
C2091      C2092   1.407       .  A
C2092      N2093   1.437       .  S
N2093      O2097   1.263       .  A
N2093      O2098   1.262       .  A
N2096      O2100   1.262       .  A
N2096      O2099   1.262       .  A
C2101      C2102   1.398       .  A
C2101      C2106   1.403       .  A
C2101      H2108   1.084       .  S
C2102      C2103   1.421       .  A
C2103      C2104   1.409       .  A
C2103      N2110   1.437       .  S
C2104      C2105   1.402       .  A
C2104      H2109   1.083       .  S
C2105      C2106   1.420       .  A
C2106      N2107   1.429       .  S
N2107      O2111   1.261       .  A
N2107      O2112   1.262   1_565  A
N2110      O2114   1.262       .  A
N2110      O2113   1.263       .  A
C2115      C2116   1.397       .  A
C2115      C2120   1.402       .  A
C2115      H2122   1.084       .  S
C2116      C2117   1.418       .  A
C2117      C2118   1.395       .  A
C2117      N2124   1.430       .  S
C2118      C2119   1.395       .  A
C2118      H2123   1.084       .  S
C2119      C2120   1.421       .  A
C2120      N2121   1.437       .  S
N2121      O2125   1.263       .  A
N2121      O2126   1.263       .  A
N2124      O2128   1.262       .  A
N2124      O2127   1.261       .  A
C2129      C2130   1.409       .  A
C2129      C2134   1.402       .  A
C2129      H2136   1.085       .  S
C2130      C2131   1.407       .  A
C2131      C2132   1.401       .  A
C2131      N2138   1.437       .  S
C2132      C2133   1.414       .  A
C2132      H2137   1.083       .  S
C2133      C2134   1.408       .  A
C2134      N2135   1.430       .  S
N2135      O2139   1.262       .  A
N2135      O2140   1.262       .  A
N2138      O2142   1.262       .  A
N2138      O2141   1.263   1_655  A
C2143      C2144   1.396       .  A
C2143      C2148   1.403       .  A
C2143      H2150   1.084       .  S
C2144      C2145   1.416   1_655  A
C2145      C2146   1.402   1_455  A
C2145      N2152   1.438       .  S
C2146      C2147   1.400       .  A
C2147      C2148   1.422       .  A
C2148      N2149   1.438       .  S
N2149      O2153   1.263       .  A
N2149      O2154   1.263       .  A
N2152      O2155   1.263       .  A
C2157      C2158   1.396       .  A
C2157      C2162   1.397       .  A
C2157      H2164   1.084       .  S
C2158      C2159   1.421       .  A
C2159      C2160   1.404       .  A
C2159      N2166   1.437   1_655  S
C2160      C2161   1.397       .  A
C2160      H2165   1.084       .  S
C2161      C2162   1.417       .  A
C2162      N2163   1.434       .  S
N2163      O2167   1.262       .  A
N2163      O2168   1.262       .  A
N2166      O2170   1.263   1_455  A
N2166      O2169   1.262       .  A
C2171      C2172   1.411       .  A
C2171      C2176   1.401       .  A
C2171      H2178   1.083       .  S
C2172      C2173   1.403       .  A
C2173      C2174   1.400       .  A
C2173      N2180   1.431       .  S
C2174      C2175   1.416       .  A
C2174      H2179   1.083       .  S
C2175      C2176   1.408       .  A
C2176      N2177   1.431       .  S
N2177      O2181   1.262       .  A
N2177      O2182   1.262       .  A
N2180      O2184   1.262       .  A
N2180      O2183   1.262       .  A
C2185      C2186   1.410       .  A
C2185      C2190   1.400       .  A
C2185      H2192   1.084       .  S
C2186      C2187   1.406       .  A
C2187      C2188   1.401       .  A
C2187      N2194   1.434       .  S
C2188      C2189   1.415       .  A
C2188      H2193   1.083       .  S
C2189      C2190   1.411       .  A
C2190      N2191   1.432       .  S
N2191      O2195   1.262       .  A
N2191      O2196   1.262       .  A
N2194      O2198   1.262       .  A
N2194      O2197   1.262       .  A
C2199      C2200   1.415       .  A
C2199      C2204   1.398       .  A
C2199      H2206   1.083       .  S
C2200      C2201   1.410       .  A
C2201      C2202   1.403       .  A
C2201      N2208   1.433       .  S
C2202      C2203   1.411       .  A
C2202      H2207   1.084       .  S
C2203      C2204   1.405       .  A
C2204      N2205   1.435       .  S
N2205      O2209   1.262       .  A
N2205      O2210   1.262       .  A
N2208      O2212   1.262       .  A
N2208      O2211   1.262       .  A
C2213      C2214   1.415       .  A
C2213      C2218   1.405       .  A
C2213      H2220   1.083       .  S
C2214      C2215   1.408       .  A
C2215      C2216   1.400       .  A
C2215      N2222   1.430       .  S
C2216      C2217   1.411       .  A
C2216      H2221   1.084       .  S
C2217      C2218   1.407       .  A
C2218      N2219   1.431       .  S
N2219      O2223   1.262       .  A
N2219      O2224   1.262       .  A
N2222      O2226   1.262       .  A
N2222      O2225   1.262       .  A
C2227      C2228   1.410       .  A
C2227      C2232   1.396       .  A
C2227      H2234   1.084       .  S
C2228      C2229   1.409       .  A
C2229      C2230   1.402       .  A
C2229      N2236   1.435       .  S
C2230      C2231   1.411       .  A
C2230      H2235   1.084       .  S
C2231      C2232   1.405       .  A
C2232      N2233   1.430       .  S
N2233      O2237   1.262       .  A
N2233      O2238   1.262       .  A
N2236      O2240   1.263       .  A
N2236      O2239   1.262       .  A
C2241      C2242   1.393       .  A
C2241      C2246   1.401       .  A
C2241      H2248   1.084       .  S
C2242      C2243   1.412       .  A
C2243      C2244   1.400       .  A
C2243      N2250   1.429       .  S
C2244      C2245   1.400       .  A
C2244      H2249   1.084       .  S
C2245      C2246   1.425       .  A
C2246      N2247   1.435       .  S
N2247      O2251   1.262       .  A
N2247      O2252   1.262       .  A
N2250      O2254   1.261       .  A
N2250      O2253   1.262       .  A
C2255      C2256   1.396       .  A
C2255      C2260   1.400       .  A
C2255      H2262   1.083       .  S
C2256      C2257   1.418       .  A
C2257      C2258   1.404       .  A
C2257      N2264   1.436       .  S
C2258      C2259   1.400       .  A
C2258      H2263   1.084       .  S
C2259      C2260   1.423       .  A
C2260      N2261   1.437       .  S
N2261      O2265   1.263       .  A
N2261      O2266   1.263       .  A
N2264      O2268   1.263       .  A
N2264      O2267   1.262       .  A
C2269      C2270   1.397       .  A
C2269      C2274   1.398       .  A
C2269      H2276   1.084       .  S
C2270      C2271   1.423       .  A
C2271      C2272   1.399       .  A
C2271      N2278   1.431       .  S
C2272      C2273   1.397       .  A
C2272      H2277   1.084       .  S
C2273      C2274   1.421       .  A
C2274      N2275   1.435       .  S
N2275      O2279   1.261       .  A
N2275      O2280   1.262       .  A
N2278      O2282   1.262   1_565  A
N2278      O2281   1.262   1_565  A
C2283      C2284   1.398       .  A
C2283      C2288   1.403       .  A
C2283      H2290   1.084       .  S
C2284      C2285   1.421       .  A
C2285      C2286   1.402       .  A
C2285      N2292   1.435       .  S
C2286      C2287   1.400       .  A
C2286      H2291   1.083       .  S
C2287      C2288   1.424       .  A
C2288      N2289   1.432       .  S
N2289      O2293   1.262       .  A
N2289      O2294   1.262       .  A
N2292      O2296   1.262       .  A
N2292      O2295   1.262       .  A
C2297      C2298   1.412       .  A
C2297      C2302   1.394       .  A
C2297      H2304   1.083       .  S
C2298      C2299   1.406       .  A
C2299      C2300   1.398       .  A
C2299      N2306   1.429       .  S
C2300      C2301   1.412       .  A
C2300      H2305   1.083       .  S
C2301      C2302   1.407       .  A
C2302      N2303   1.430       .  S
N2303      O2307   1.262       .  A
N2303      O2308   1.262       .  A
N2306      O2310   1.262       .  A
N2306      O2309   1.262       .  A
C2311      H2318   1.083       .  S
C2312      C2313   1.404       .  A
C2313      C2314   1.397       .  A
C2313      N2320   1.436       .  S
C2314      C2315   1.411       .  A
C2314      H2319   1.084       .  S
C2315      C2316   1.410       .  A
N2317      O2321   1.263   1_565  A
N2320      O2324   1.262       .  A
N2320      O2323   1.263       .  A
C2325      C2326   1.414       .  A
C2325      C2330   1.402       .  A
C2325      H2332   1.083       .  S
C2326      C2327   1.408       .  A
C2327      C2328   1.399       .  A
C2328      C2329   1.412       .  A
C2329      C2330   1.408       .  A
C2330      N2331   1.433       .  S
N2331      O2335   1.262       .  A
N2331      O2336   1.262       .  A
N2334      O2338   1.262       .  A
N2334      O2337   1.262       .  A
C2339      C2340   1.400       .  A
C2339      C2344   1.406       .  A
C2339      H2346   1.084       .  S
C2340      C2341   1.422       .  A
C2341      C2342   1.406       .  A
C2341      N2348   1.436       .  S
C2342      C2343   1.398       .  A
C2342      H2347   1.084       .  S
C2343      C2344   1.419       .  A
C2344      N2345   1.437       .  S
N2345      O2349   1.262   1_565  A
N2345      O2350   1.262       .  A
N2348      O2352   1.262       .  A
N2348      O2351   1.262       .  A
C2353      C2354   1.413       .  A
C2353      C2358   1.403       .  A
C2353      H2360   1.084       .  S
C2354      C2355   1.405       .  A
C2355      C2356   1.402       .  A
C2355      N2362   1.431   1_565  S
C2356      C2357   1.416       .  A
C2356      H2361   1.083       .  S
C2357      C2358   1.407       .  A
C2358      N2359   1.429       .  S
N2359      O2363   1.262       .  A
N2359      O2364   1.262       .  A
N2362      O2366   1.262       .  A
N2362      O2365   1.262       .  A
C2367      C2368   1.413       .  A
C2367      C2372   1.397       .  A
C2367      H2374   1.083   1_565  S
C2368      C2369   1.409       .  A
C2369      C2370   1.403       .  A
C2369      N2376   1.432       .  S
C2370      C2371   1.411       .  A
C2370      H2375   1.084       .  S
C2371      C2372   1.404       .  A
C2372      N2373   1.431       .  S
N2373      O2377   1.262   1_565  A
N2373      O2378   1.262   1_565  A
N2376      O2380   1.262       .  A
N2376      O2379   1.262       .  A
C2381      C2382   1.401       .  A
C2381      C2386   1.404       .  A
C2381      H2388   1.084       .  S
C2382      C2383   1.425       .  A
C2383      C2384   1.404       .  A
C2383      N2390   1.435       .  S
C2384      C2385   1.397       .  A
C2385      C2386   1.422       .  A
C2386      N2387   1.436       .  S
N2387      O2391   1.262       .  A
N2387      O2392   1.263       .  A
N2390      O2394   1.263       .  A
N2390      O2393   1.262       .  A
C2395      C2396   1.400   1_545  A
C2395      C2400   1.404       .  A
C2395      H2402   1.084       .  S
C2396      C2397   1.420       .  A
C2397      C2398   1.402       .  A
C2397      N2404   1.438       .  S
C2398      C2399   1.399       .  A
C2398      H2403   1.084       .  S
C2399      C2400   1.420   1_565  A
C2400      N2401   1.438       .  S
N2401      O2405   1.263       .  A
N2401      O2406   1.263       .  A
N2404      O2408   1.263       .  A
N2404      O2407   1.263       .  A
C2409      C2410   1.412       .  A
C2409      C2414   1.396       .  A
C2409      H2416   1.084       .  S
C2410      C2411   1.413       .  A
C2411      C2412   1.402       .  A
C2411      N2418   1.434       .  S
C2412      C2413   1.404       .  A
C2412      H2417   1.084       .  S
C2413      C2414   1.400       .  A
C2414      N2415   1.431       .  S
N2415      O2419   1.262       .  A
N2415      O2420   1.262       .  A
N2418      O2422   1.262       .  A
N2418      O2421   1.262       .  A
C2423      C2424   1.414       .  A
C2423      C2428   1.397       .  A
C2423      H2430   1.084       .  S
C2424      C2425   1.413       .  A
C2425      C2426   1.405       .  A
C2425      N2432   1.433       .  S
C2426      C2427   1.407       .  A
C2426      H2431   1.084       .  S
C2427      C2428   1.402       .  A
C2428      N2429   1.433       .  S
N2429      O2433   1.262       .  A
N2429      O2434   1.262       .  A
N2432      O2436   1.262       .  A
N2432      O2435   1.262       .  A
C2437      C2438   1.396       .  A
C2437      C2442   1.398       .  A
C2437      H2444   1.084       .  S
C2438      C2439   1.422       .  A
C2439      C2440   1.398       .  A
C2439      N2446   1.435       .  S
C2440      C2441   1.396       .  A
C2440      H2445   1.084       .  S
C2441      C2442   1.423       .  A
C2442      N2443   1.436       .  S
N2443      O2447   1.263       .  A
N2443      O2448   1.263       .  A
N2446      O2450   1.262       .  A
N2446      O2449   1.263       .  A
C2451      C2452   1.397       .  A
C2451      C2456   1.398       .  A
C2451      H2458   1.084       .  S
C2452      C2453   1.422       .  A
C2453      C2454   1.399       .  A
C2453      N2460   1.432       .  S
C2454      C2455   1.398       .  A
C2454      H2459   1.084       .  S
C2455      C2456   1.422       .  A
C2456      N2457   1.429       .  S
N2457      O2461   1.261       .  A
N2457      O2462   1.262       .  A
N2460      O2464   1.262       .  A
N2460      O2463   1.262       .  A
C2465      C2466   1.414       .  A
C2465      C2470   1.400       .  A
C2465      H2472   1.083       .  S
C2466      C2467   1.407       .  A
C2467      C2468   1.403       .  A
C2467      N2474   1.431       .  S
C2468      C2469   1.415       .  A
C2468      H2473   1.083       .  S
C2469      C2470   1.407       .  A
C2470      N2471   1.430       .  S
N2471      O2475   1.262       .  A
N2471      O2476   1.262       .  A
N2474      O2478   1.262       .  A
N2474      O2477   1.262       .  A
C2479      C2480   1.398       .  A
C2479      C2484   1.398       .  A
C2480      C2481   1.424       .  A
C2481      C2482   1.399       .  A
C2481      N2488   1.431       .  S
C2482      C2483   1.396       .  A
C2482      H2487   1.084       .  S
C2483      C2484   1.420       .  A
C2484      N2485   1.431       .  S
N2485      O2490   1.262       .  A
N2488      O2492   1.262       .  A
N2488      O2491   1.262       .  A
C2493      C2494   1.411       .  A
C2493      C2498   1.402       .  A
C2493      H2500   1.084       .  S
C2494      C2495   1.410       .  A
C2495      C2496   1.404       .  A
C2495      N2502   1.437       .  S
C2496      C2497   1.413       .  A
C2496      H2501   1.083       .  S
C2497      C2498   1.408       .  A
C2498      N2499   1.430       .  S
N2499      O2503   1.262       .  A
N2499      O2504   1.262       .  A
N2502      O2506   1.263       .  A
N2502      O2505   1.262       .  A
C2507      C2508   1.406       .  A
C2507      C2512   1.401       .  A
C2507      H2514   1.084       .  S
C2508      C2509   1.406       .  A
C2509      C2510   1.396       .  A
C2509      N2516   1.432       .  S
C2510      C2511   1.406       .  A
C2510      H2515   1.085       .  S
C2511      C2512   1.410       .  A
C2512      N2513   1.436       .  S
N2513      O2517   1.262       .  A
N2513      O2518   1.262       .  A
N2516      O2520   1.261       .  A
N2516      O2519   1.262       .  A
C2521      C2522   1.394   1_455  A
C2521      C2526   1.401       .  A
C2521      H2528   1.084       .  S
C2522      C2523   1.415       .  A
C2523      C2524   1.405       .  A
C2523      N2530   1.435       .  S
C2524      C2525   1.401   1_655  A
C2524      H2529   1.084       .  S
C2525      C2526   1.425       .  A
C2526      N2527   1.437       .  S
N2527      O2531   1.263       .  A
N2527      O2532   1.262       .  A
N2530      O2534   1.262   1_565  A
N2530      O2533   1.262       .  A
C2535      C2536   1.415       .  A
C2535      C2540   1.406       .  A
C2535      H2542   1.083       .  S
C2536      C2537   1.410       .  A
C2537      C2538   1.402       .  A
C2537      N2544   1.431       .  S
C2538      C2539   1.413       .  A
C2538      H2543   1.083       .  S
C2539      C2540   1.409       .  A
C2540      N2541   1.432       .  S
N2541      O2545   1.262       .  A
N2541      O2546   1.262       .  A
N2544      O2548   1.262       .  A
N2544      O2547   1.262       .  A
C2549      C2550   1.410       .  A
C2549      C2554   1.402       .  A
C2549      H2556   1.084   1_655  S
C2550      C2551   1.407       .  A
C2551      C2552   1.403       .  A
C2551      N2558   1.436       .  S
C2552      C2553   1.415       .  A
C2552      H2557   1.083       .  S
C2553      C2554   1.411       .  A
C2554      N2555   1.433   1_655  S
N2555      O2559   1.262       .  A
N2555      O2560   1.262   1_455  A
N2558      O2562   1.263       .  A
N2558      O2561   1.262       .  A
C2563      C2564   1.401       .  A
C2563      C2568   1.404       .  A
C2563      H2570   1.084       .  S
C2564      C2565   1.425       .  A
C2565      C2566   1.399       .  A
C2565      N2572   1.435       .  S
C2566      C2567   1.396       .  A
C2566      H2571   1.084       .  S
C2567      C2568   1.420       .  A
C2568      N2569   1.436       .  S
N2569      O2573   1.262       .  A
N2569      O2574   1.263       .  A
N2572      O2576   1.263       .  A
N2572      O2575   1.263       .  A
C2577      C2578   1.413   1_455  A
C2577      C2582   1.401       .  A
C2577      H2584   1.083       .  S
C2578      C2579   1.410       .  A
C2579      C2580   1.399       .  A
C2579      N2586   1.434       .  S
C2580      C2581   1.413       .  A
C2580      H2585   1.083       .  S
C2581      C2582   1.410   1_655  A
C2582      N2583   1.434       .  S
N2583      O2587   1.262   1_455  A
N2583      O2588   1.263       .  A
N2586      O2590   1.262       .  A
N2586      O2589   1.263       .  A
C2591      C2592   1.414       .  A
C2591      C2596   1.402       .  A
C2591      H2598   1.083       .  S
C2592      C2593   1.406       .  A
C2593      C2594   1.397       .  A
C2593      N2600   1.430       .  S
C2594      C2595   1.411       .  A
C2594      H2599   1.084       .  S
C2595      C2596   1.407       .  A
C2596      N2597   1.435   1_565  S
N2597      O2601   1.263       .  A
N2597      O2602   1.262       .  A
N2600      O2604   1.262       .  A
N2600      O2603   1.262       .  A
C2605      C2606   1.399       .  A
C2605      C2610   1.399       .  A
C2605      H2612   1.084       .  S
C2606      C2607   1.424       .  A
C2607      C2608   1.403       .  A
C2607      N2614   1.436   1_565  S
C2608      C2609   1.396       .  A
C2608      H2613   1.084       .  S
C2609      C2610   1.416       .  A
C2610      N2611   1.434       .  S
N2611      O2615   1.262       .  A
N2611      O2616   1.262       .  A
N2614      O2618   1.263       .  A
N2614      O2617   1.263       .  A
C2619      C2620   1.399       .  A
C2619      C2624   1.407       .  A
C2620      C2621   1.419       .  A
C2621      C2622   1.406       .  A
C2621      N2628   1.438       .  S
C2622      C2623   1.401       .  A
C2622      H2627   1.084       .  S
C2623      C2624   1.423       .  A
C2624      N2625   1.437       .  S
N2625      O2629   1.263       .  A
N2625      O2630   1.263       .  A
N2628      O2632   1.263       .  A
N2628      O2631   1.262       .  A
C2633      C2634   1.413       .  A
C2633      C2638   1.399       .  A
C2633      H2640   1.084       .  S
C2634      C2635   1.408       .  A
C2635      C2636   1.403       .  A
C2636      C2637   1.414       .  A
C2636      H2641   1.083       .  S
C2637      C2638   1.406       .  A
C2638      N2639   1.431       .  S
N2639      O2643   1.262       .  A
N2639      O2644   1.262       .  A
N2642      O2646   1.262       .  A
N2642      O2645   1.262       .  A
C2647      C2648   1.413       .  A
C2647      C2652   1.401       .  A
C2647      H2654   1.084       .  S
C2648      C2649   1.407       .  A
C2649      C2650   1.401       .  A
C2649      N2656   1.434       .  S
C2650      C2651   1.415       .  A
C2650      H2655   1.083       .  S
C2651      C2652   1.409       .  A
C2652      N2653   1.432       .  S
N2653      O2657   1.262       .  A
N2653      O2658   1.262       .  A
C2661      C2662   1.414       .  A
C2661      C2666   1.404       .  A
C2661      H2668   1.083       .  S
C2662      C2663   1.410       .  A
C2663      C2664   1.401       .  A
C2663      N2670   1.429       .  S
C2664      C2665   1.411       .  A
C2664      H2669   1.084       .  S
C2665      C2666   1.408       .  A
C2666      N2667   1.430   1_565  S
N2667      O2671   1.262       .  A
N2667      O2672   1.262       .  A
N2670      O2674   1.262       .  A
N2670      O2673   1.262       .  A
C2675      C2676   1.396       .  A
C2675      C2680   1.400       .  A
C2675      H2682   1.084       .  S
C2677      C2678   1.397       .  A
C2677      N2684   1.436       .  S
C2678      H2683   1.083       .  S
C2679      C2680   1.420       .  A
C2680      N2681   1.437       .  S
N2681      O2685   1.263       .  A
N2681      O2686   1.263       .  A
N2684      O2688   1.262       .  A
N2684      O2687   1.262       .  A
