geometry optimzed in LAMMPS
_audit_creation_date              2020-12-01 
_audit_creation_method            'lammps2cif' 
_symmetry_space_group_name_H-M    'P1' 
_symmetry_Int_Tables_number       1 
_symmetry_cell_setting            triclinic 
loop_ 
_symmetry_equiv_pos_as_xyz 
  x,y,z 
_cell_length_a                    67.22884122 
_cell_length_b                    34.54870039886368 
_cell_length_c                    69.29094351074826 
_cell_angle_alpha                 90.05891401030979 
_cell_angle_beta                  89.92288490974427 
_cell_angle_gamma                 90.02927219771942 
loop_ 
_atom_site_label 
_atom_site_type_symbol 
_atom_site_fract_x 
_atom_site_fract_y 
_atom_site_fract_z 
_atom_site_charge 
Zn1        Zn  0.61032820  0.32581736  0.89439358     1.49700
Zn2        Zn  0.64842543  0.26844168  0.89393290     1.49400
Zn3        Zn  0.61151122  0.25550242  0.86553101     1.49100
Zn4        Zn  0.64057624  0.32559333  0.85848354     1.49500
O5          O  0.62781222  0.29392615  0.87824639    -1.84000
O6          O  0.61584976  0.31491884  0.92256298    -0.74600
O7          O  0.64904086  0.20980212  0.88902769    -0.74400
O8          O  0.58304892  0.25743580  0.87408697    -0.74000
O9          O  0.64202472  0.27564844  0.92203263    -0.74600
O10         O  0.58075115  0.31303583  0.89006992    -0.74200
O11         O  0.62196907  0.20326251  0.87088960    -0.74800
O12         O  0.63489150  0.30582106  0.83145654    -0.74200
O13         O  0.67557138  0.29365720  0.88932221    -0.75000
O14         O  0.61245453  0.25991992  0.83671910    -0.74400
O15         O  0.67023110  0.32760251  0.86259052    -0.74800
O16         O  0.63244789  0.38151963  0.86137486    -0.74700
O17         O  0.61625474  0.38271392  0.88945376    -0.74500
C18         C  0.62884048  0.29457368  0.93129150     0.77300
C19         C  0.63674075  0.18875643  0.87968674     0.77800
C20         C  0.57270675  0.28277175  0.88286706     0.76700
C21         C  0.62310547  0.27972426  0.82520738     0.77100
C22         C  0.68176455  0.31612357  0.87598115     0.78200
C23         C  0.62463579  0.40009865  0.87536870     0.77300
Zn24       Zn  0.61088465  0.82321751  0.88722423     1.49700
Zn25       Zn  0.65001758  0.76961021  0.88613015     1.49400
Zn26       Zn  0.61449216  0.75662646  0.85562844     1.49100
Zn27       Zn  0.64175698  0.83059728  0.85186392     1.49500
O28         O  0.62937250  0.79493341  0.87031062    -1.84000
O29         O  0.61701185  0.81324734  0.91524687    -0.74600
O30         O  0.64957882  0.71087477  0.88233620    -0.74400
O31         O  0.58534547  0.75719264  0.86273610    -0.74000
O32         O  0.64477190  0.77861110  0.91441078    -0.74600
O33         O  0.58203038  0.80719542  0.88271099    -0.74200
O34         O  0.62463194  0.70374002  0.86156401    -0.74800
O35         O  0.63718988  0.81515701  0.82387053    -0.74200
O36         O  0.67741478  0.79273163  0.88052883    -0.75000
O37         O  0.61759867  0.76383231  0.82679240    -0.74400
O38         O  0.67134013  0.83255976  0.85604685    -0.74800
O39         O  0.63263879  0.88536114  0.85692212    -0.74700
O40         O  0.61447416  0.88071623  0.88373113    -0.74500
C41         C  0.63114944  0.79589877  0.92384884     0.77300
C42         C  0.63818288  0.68944494  0.87217806     0.77800
C43         C  0.57455408  0.77899669  0.87326470     0.76700
C44         C  0.62733107  0.78750386  0.81630410     0.77100
C45         C  0.68331320  0.81752294  0.86811725     0.78200
C46         C  0.62326687  0.90090502  0.87093152     0.77300
Zn47       Zn  0.60874390  0.18612400  0.64586589     1.49700
Zn48       Zn  0.61505943  0.25170129  0.61391539     1.49400
Zn49       Zn  0.64793444  0.24240014  0.64659344     1.49100
Zn50       Zn  0.64314340  0.18001330  0.61364059     1.49500
O51         O  0.62860445  0.21496129  0.63034418    -1.84000
O52         O  0.58047219  0.20422903  0.63959782    -0.74600
O53         O  0.62447948  0.30508627  0.61874868    -0.74400
O54         O  0.63997675  0.23497929  0.67393354    -0.74000
O55         O  0.58583404  0.25134586  0.61848522    -0.74600
O56         O  0.61336292  0.19674952  0.67454714    -0.74200
O57         O  0.64726637  0.30087026  0.64185173    -0.74800
O58         O  0.67221157  0.18262765  0.61815160    -0.74200
O59         O  0.61899058  0.24073179  0.58600177    -0.75000
O60         O  0.67619301  0.22087123  0.64361730    -0.74400
O61         O  0.63811682  0.18861565  0.58552980    -0.74800
O62         O  0.63595850  0.12599568  0.61960107    -0.74700
O63         O  0.61122060  0.12772898  0.64093922    -0.74500
C64         C  0.57400462  0.23115092  0.62865471     0.77300
C65         C  0.63681617  0.32086065  0.63017545     0.77800
C66         C  0.62641209  0.21724600  0.68321501     0.76700
C67         C  0.68323014  0.19772385  0.63098443     0.77100
C68         C  0.62822342  0.21451790  0.57678407     0.78200
C69         C  0.62340615  0.10893303  0.63032195     0.77300
Zn70       Zn  0.61093328  0.74748971  0.60394126     1.49700
Zn71       Zn  0.63913071  0.67592918  0.60362883     1.49400
Zn72       Zn  0.64812267  0.74493235  0.63311457     1.49100
Zn73       Zn  0.61040755  0.68830078  0.63958358     1.49500
O74         O  0.62713058  0.71441893  0.62028941    -1.84000
O75         O  0.61336257  0.73538972  0.57532389    -0.74600
O76         O  0.66812716  0.67121089  0.60944920    -0.74400
O77         O  0.64613646  0.80199779  0.62589780    -0.74000
O78         O  0.63542898  0.68761953  0.57529744    -0.74600
O79         O  0.61830516  0.80235307  0.60855888    -0.74200
O80         O  0.67563679  0.72171638  0.62801560    -0.74800
O81         O  0.61772593  0.70610790  0.66659934    -0.74200
O82         O  0.62857013  0.62330978  0.60934554    -0.75000
O83         O  0.64383048  0.74445667  0.66214055    -0.74400
O84         O  0.61395126  0.62987279  0.63797712    -0.74800
O85         O  0.58124099  0.70233971  0.63571691    -0.74700
O86         O  0.58252177  0.74523359  0.61179285    -0.74500
C87         C  0.62432665  0.71136381  0.56628052     0.77300
C88         C  0.68065215  0.69082639  0.61910990     0.77800
C89         C  0.63217773  0.82012892  0.61731388     0.76700
C90         C  0.63115029  0.72850018  0.67329139     0.77100
C91         C  0.62073462  0.60869280  0.62438694     0.78200
C92         C  0.57286169  0.72670234  0.62455503     0.77300
Zn93       Zn  0.35145056  0.24022881  0.89102376     1.49700
Zn94       Zn  0.38873519  0.18055894  0.88943089     1.49400
Zn95       Zn  0.35534113  0.18039710  0.85593670     1.49100
Zn96       Zn  0.38640731  0.24799315  0.85922677     1.49500
O97         O  0.37037976  0.21223691  0.87413831    -1.84000
O98         O  0.35879763  0.23208425  0.91888603    -0.74600
O99         O  0.38348428  0.12392895  0.88413693    -0.74400
O100        O  0.32619847  0.18055530  0.86247598    -0.74000
O101        O  0.38325034  0.18893340  0.91761675    -0.74600
O102        O  0.32318420  0.21815355  0.88835713    -0.74200
O103        O  0.36311382  0.12416132  0.85878836    -0.74800
O104        O  0.38408274  0.23936750  0.83057577    -0.74200
O105        O  0.41815938  0.19521795  0.88556442    -0.75000
O106        O  0.35847028  0.19888566  0.82826557    -0.74400
O107        O  0.41517263  0.24730273  0.86710199    -0.74800
O108        O  0.37668497  0.30144050  0.86369598    -0.74700
O109        O  0.35247102  0.29867843  0.88559937    -0.74500
C110        C  0.37135299  0.21018923  0.92723660     0.77300
C111        C  0.37310801  0.10606974  0.87155022     0.77800
C112        C  0.31572768  0.19478782  0.87604556     0.76700
C113        C  0.37116730  0.22149495  0.82054151     0.77100
C114        C  0.42581789  0.22458779  0.87719000     0.78200
C115        C  0.36367347  0.31791847  0.87418103     0.77300
Zn116      Zn  0.38744252  0.75351074  0.86077399     1.49700
Zn117      Zn  0.35092945  0.73628043  0.88967159     1.49400
Zn118      Zn  0.36035718  0.68012393  0.85394164     1.49100
Zn119      Zn  0.39012319  0.68212417  0.88966011     1.49500
O120        O  0.37214017  0.71318747  0.87367790    -1.84000
O121        O  0.37621055  0.80529822  0.86702829    -0.74600
O122        O  0.32389489  0.71160582  0.88356435    -0.74400
O123        O  0.36584511  0.69936919  0.82703270    -0.74000
O124        O  0.35000108  0.79511074  0.88606435    -0.74600
O125        O  0.38563508  0.74981947  0.83179443    -0.74200
O126        O  0.33083449  0.67656221  0.85753755    -0.74800
O127        O  0.38590393  0.62489140  0.88443110    -0.74200
O128        O  0.35665098  0.72629643  0.91787234    -0.75000
O129        O  0.36934996  0.62493620  0.85666147    -0.74400
O130        O  0.38407264  0.69043737  0.91793352    -0.74800
O131        O  0.41916636  0.69737159  0.88519552    -0.74700
O132        O  0.41640554  0.75205530  0.86848285    -0.74500
C133        C  0.36147029  0.81780807  0.87669015     0.77300
C134        C  0.31849414  0.68851428  0.87014017     0.77800
C135        C  0.37609572  0.72748015  0.82049841     0.76700
C136        C  0.37778296  0.60692874  0.87042127     0.77100
C137        C  0.37021438  0.70803178  0.92693184     0.78200
C138        C  0.42697730  0.72723020  0.87739277     0.77300
Zn139      Zn  0.38716427  0.26523057  0.64117452     1.49700
Zn140      Zn  0.39007567  0.32891761  0.60847092     1.49400
Zn141      Zn  0.35142256  0.27316491  0.61041851     1.49100
Zn142      Zn  0.35887725  0.33523196  0.64417340     1.49500
O143        O  0.37179607  0.30071371  0.62571709    -1.84000
O144        O  0.41611213  0.26865569  0.63583590    -0.74600
O145        O  0.38380312  0.31725484  0.58020900    -0.74400
O146        O  0.35229384  0.21489506  0.61625472    -0.74000
O147        O  0.41918328  0.31400389  0.61341668    -0.74600
O148        O  0.37876447  0.21215021  0.63538859    -0.74200
O149        O  0.35715197  0.27936187  0.58179473    -0.74800
O150        O  0.32994062  0.33859014  0.63866631    -0.74200
O151        O  0.38630884  0.38660232  0.61276764    -0.75000
O152        O  0.32379780  0.29692267  0.61501460    -0.74400
O153        O  0.36804037  0.38930037  0.63957792    -0.74800
O154        O  0.36194233  0.31973926  0.67242640    -0.74700
O155        O  0.38342583  0.27157531  0.66962232    -0.74500
C156        C  0.42689962  0.28894470  0.62469361     0.77300
C157        C  0.37024891  0.29737110  0.57193417     0.77800
C158        C  0.36493450  0.19554465  0.62607886     0.76700
C159        C  0.31801408  0.32338237  0.62664426     0.77100
C160        C  0.37734244  0.40592832  0.62587076     0.78200
C161        C  0.37263127  0.29341082  0.68000888     0.77300
Zn162      Zn  0.35970007  0.83427507  0.60866483     1.49700
Zn163      Zn  0.38990909  0.82968020  0.64398551     1.49400
Zn164      Zn  0.35206780  0.77044787  0.63964407     1.49100
Zn165      Zn  0.38921482  0.76615652  0.61032200     1.49500
O166        O  0.37284425  0.79992177  0.62611920    -1.84000
O167        O  0.36822610  0.88756870  0.61309997    -0.74600
O168        O  0.38290020  0.81503977  0.67162621    -0.74400
O169        O  0.32410753  0.79489523  0.63638409    -0.74000
O170        O  0.38642042  0.88814005  0.63978524    -0.74600
O171        O  0.33073136  0.83677470  0.61311017    -0.74200
O172        O  0.35880211  0.77138723  0.66787931    -0.74800
O173        O  0.37972017  0.71243086  0.61262719    -0.74200
O174        O  0.41917964  0.81472607  0.64047663    -0.75000
O175        O  0.35278909  0.71348445  0.63126442    -0.74400
O176        O  0.41726768  0.76649909  0.61928986    -0.74800
O177        O  0.38858330  0.77854219  0.58187696    -0.74700
O178        O  0.36466258  0.82242779  0.58121681    -0.74500
C179        C  0.37747097  0.90589666  0.62615281     0.77300
C180        C  0.37084799  0.79011347  0.67860852     0.77800
C181        C  0.31851749  0.82158285  0.62483154     0.76700
C182        C  0.36540773  0.69511865  0.62090662     0.77100
C183        C  0.42728604  0.78748470  0.63079667     0.78200
C184        C  0.37703272  0.80081296  0.57254111     0.77300
Zn185      Zn  0.88568759  0.01906060  0.60548600     1.49700
Zn186      Zn  0.85907523  0.09225510  0.60652577     1.49400
Zn187      Zn  0.85283444  0.02701517  0.63863188     1.49100
Zn188      Zn  0.89169519  0.08162914  0.63985135     1.49500
O189        O  0.87241887  0.05497015  0.62285544    -1.84000
O190        O  0.87981853  0.02825961  0.57721518    -0.74600
O191        O  0.82993201  0.09336507  0.61234565    -0.74400
O192        O  0.85317317  0.96911554  0.63292874    -0.74000
O193        O  0.86313604  0.08358454  0.57804123    -0.74600
O194        O  0.87791081  0.96508144  0.61172563    -0.74200
O195        O  0.82531665  0.05122666  0.63621572    -0.74800
O196        O  0.88776699  0.06561579  0.66792321    -0.74200
O197        O  0.86872998  0.14503713  0.61244014    -0.75000
O198        O  0.86047393  0.02962722  0.66645152    -0.74400
O199        O  0.88885381  0.14056007  0.63778797    -0.74800
O200        O  0.91983950  0.06562536  0.63240991    -0.74700
O201        O  0.91508187  0.02204541  0.60923196    -0.74500
C202        C  0.87125923  0.05619845  0.56864885     0.77300
C203        C  0.81878059  0.07734779  0.62486834     0.77800
C204        C  0.86502787  0.94910688  0.62254762     0.76700
C205        C  0.87461078  0.04460465  0.67608438     0.77100
C206        C  0.87948637  0.16070256  0.62532729     0.78200
C207        C  0.92661505  0.04103316  0.62029621     0.77300
Zn208      Zn  0.86123977  0.59209404  0.60936104     1.49700
Zn209      Zn  0.88955012  0.58220293  0.64557879     1.49400
Zn210      Zn  0.85057295  0.52667820  0.63998269     1.49100
Zn211      Zn  0.88819932  0.51892540  0.61192259     1.49500
O212        O  0.87240021  0.55479165  0.62701063    -1.84000
O213        O  0.87178215  0.64515457  0.61416388    -0.74600
O214        O  0.88124338  0.56756382  0.67262000    -0.74400
O215        O  0.82313133  0.54928498  0.63346453    -0.74000
O216        O  0.88640515  0.64063614  0.64285492    -0.74600
O217        O  0.83215133  0.59712040  0.61393478    -0.74200
O218        O  0.85395867  0.53210379  0.66848888    -0.74800
O219        O  0.87909862  0.46499026  0.61625602    -0.74200
O220        O  0.91893360  0.56679991  0.64228425    -0.75000
O221        O  0.85239401  0.46846823  0.63518131    -0.74400
O222        O  0.91650322  0.52045448  0.62013079    -0.74800
O223        O  0.88676619  0.52876691  0.58334525    -0.74700
O224        O  0.86584265  0.57817144  0.58161023    -0.74500
C225        C  0.87976078  0.66076461  0.62885967     0.77300
C226        C  0.86680396  0.54787957  0.67944026     0.77800
C227        C  0.81888315  0.57923050  0.62349874     0.76700
C228        C  0.86515584  0.44887990  0.62567078     0.77100
C229        C  0.92679578  0.54028117  0.63192553     0.78200
C230        C  0.87670661  0.55279205  0.57346668     0.77300
Zn231      Zn  0.85025231  0.49521366  0.88947653     1.49700
Zn232      Zn  0.85497090  0.43556552  0.85494972     1.49400
Zn233      Zn  0.88568973  0.50377928  0.85861409     1.49100
Zn234      Zn  0.88785821  0.43607512  0.88886628     1.49500
O235        O  0.86967637  0.46756965  0.87322912    -1.84000
O236        O  0.82213927  0.47214347  0.88671791    -0.74600
O237        O  0.85828947  0.45294427  0.82731167    -0.74400
O238        O  0.87715029  0.55745187  0.86420455    -0.74000
O239        O  0.82597909  0.43542630  0.86070183    -0.74600
O240        O  0.85085261  0.55342874  0.88366736    -0.74200
O241        O  0.88128531  0.49850392  0.83043980    -0.74800
O242        O  0.91708660  0.45007833  0.88442685    -0.74200
O243        O  0.86206863  0.37986369  0.85850985    -0.75000
O244        O  0.91500010  0.49878122  0.86370754    -0.74400
O245        O  0.88327255  0.37921170  0.88320132    -0.74800
O246        O  0.88221081  0.44489472  0.91716215    -0.74700
O247        O  0.85770039  0.48808689  0.91730316    -0.74500
C248        C  0.81512435  0.44880766  0.87414625     0.77300
C249        C  0.86952820  0.47875867  0.82001648     0.77800
C250        C  0.86305989  0.57327863  0.87355093     0.76700
C251        C  0.92534706  0.47617968  0.87414493     0.77100
C252        C  0.87245642  0.36164061  0.87086642     0.78200
C253        C  0.87010874  0.46675450  0.92622593     0.77300
Zn254      Zn  0.88771067  0.00611035  0.85843274     1.49700
Zn255      Zn  0.85990412  0.93403343  0.85108898     1.49400
Zn256      Zn  0.88922198  0.93632402  0.88734996     1.49100
Zn257      Zn  0.85063887  0.99177505  0.88658168     1.49500
O258        O  0.87169551  0.96707854  0.87096424    -1.84000
O259        O  0.88649892  0.00235634  0.82947126    -0.74600
O260        O  0.86880277  0.87858958  0.85424568    -0.74400
O261        O  0.91835623  0.95130157  0.88474317    -0.74000
O262        O  0.86616812  0.95286166  0.82411673    -0.74600
O263        O  0.91603110  0.00413927  0.86671630    -0.74200
O264        O  0.88531444  0.87978460  0.88206025    -0.74800
O265        O  0.85562165  0.98245898  0.91505945    -0.74200
O266        O  0.83015676  0.93103648  0.85456333    -0.75000
O267        O  0.88220814  0.94441790  0.91507244    -0.74400
O268        O  0.82392311  0.96680535  0.88062463    -0.74800
O269        O  0.85041613  0.05080760  0.88287120    -0.74700
O270        O  0.87842802  0.05806698  0.86613538    -0.74500
C271        C  0.87711426  0.98030337  0.81789619     0.77300
C272        C  0.87725519  0.86128101  0.86823172     0.77800
C273        C  0.92623777  0.98086216  0.87683703     0.76700
C274        C  0.86874327  0.96297552  0.92407487     0.77100
C275        C  0.81823989  0.94337477  0.86748161     0.78200
C276        C  0.86378265  0.07227870  0.87529764     0.77300
Zn277      Zn  0.11071667  0.07570140  0.89490813     1.49700
Zn278      Zn  0.14773326  0.01511680  0.89327846     1.49400
Zn279      Zn  0.11054198  0.00880941  0.86433398     1.49100
Zn280      Zn  0.14084935  0.07565747  0.85913698     1.49500
O281        O  0.12759884  0.04377027  0.87828296    -1.84000
O282        O  0.11747128  0.06548603  0.92282997    -0.74600
O283        O  0.14665288  0.95658681  0.88667235    -0.74400
O284        O  0.08247689  0.01127277  0.87299942    -0.74000
O285        O  0.14130491  0.02086683  0.92167241    -0.74600
O286        O  0.08111782  0.06340461  0.89167465    -0.74200
O287        O  0.11960318  0.95542037  0.86827845    -0.74800
O288        O  0.13681417  0.05653688  0.83195539    -0.74200
O289        O  0.17558391  0.03960876  0.88935904    -0.75000
O290        O  0.11117308  0.01679357  0.83577519    -0.74400
O291        O  0.16988265  0.07851524  0.86448118    -0.74800
O292        O  0.13220357  0.13089079  0.86139981    -0.74700
O293        O  0.11567688  0.13209385  0.88922709    -0.74500
C294        C  0.12944122  0.04240566  0.93124800     0.77300
C295        C  0.13374253  0.93802306  0.87671915     0.77800
C296        C  0.07264661  0.03504473  0.88321426     0.76700
C297        C  0.12355855  0.03425319  0.82500698     0.77100
C298        C  0.18158945  0.06476315  0.87712266     0.78200
C299        C  0.12392469  0.14948014  0.87509363     0.77300
Zn300      Zn  0.14227205  0.57687920  0.89036332     1.49700
Zn301      Zn  0.14890597  0.51491952  0.85764141     1.49400
Zn302      Zn  0.11410390  0.50566778  0.88947949     1.49100
Zn303      Zn  0.10934090  0.56936788  0.85651144     1.49500
O304        O  0.12852031  0.54169405  0.87314045    -1.84000
O305        O  0.17145006  0.57776678  0.88588805    -0.74600
O306        O  0.14909086  0.45736663  0.86395353    -0.74400
O307        O  0.11719330  0.51674901  0.91761929    -0.74000
O308        O  0.17675862  0.53841648  0.86116001    -0.74600
O309        O  0.13776351  0.56668139  0.91839914    -0.74200
O310        O  0.12439940  0.45270176  0.88528382    -0.74800
O311        O  0.08061053  0.55289327  0.86280554    -0.74200
O312        O  0.14175350  0.51887238  0.82958879    -0.75000
O313        O  0.08484091  0.50588169  0.88422970    -0.74400
O314        O  0.11411474  0.55425971  0.82827149    -0.74800
O315        O  0.11287262  0.62842431  0.86014228    -0.74700
O316        O  0.13386565  0.63014953  0.88488348    -0.74500
C317        C  0.18309651  0.56301538  0.87346811     0.77300
C318        C  0.13804565  0.43736165  0.87513255     0.77800
C319        C  0.12719664  0.54159626  0.92701465     0.76700
C320        C  0.07351034  0.52646576  0.87374036     0.77100
C321        C  0.12763444  0.53417109  0.82001790     0.78200
C322        C  0.12316478  0.64737130  0.87250501     0.77300
Zn323      Zn  0.11149782  0.49908785  0.61066896     1.49700
Zn324      Zn  0.13996913  0.42830405  0.60673445     1.49400
Zn325      Zn  0.14806722  0.48859759  0.64034032     1.49100
Zn326      Zn  0.10936422  0.43247229  0.64231730     1.49500
O327        O  0.12721840  0.46212603  0.62528727    -1.84000
O328        O  0.11223679  0.48987659  0.58193025    -0.74600
O329        O  0.16953277  0.42904739  0.60942720    -0.74400
O330        O  0.14710915  0.54659916  0.63539663    -0.74000
O331        O  0.13274170  0.43997945  0.57931146    -0.74600
O332        O  0.12151743  0.55179786  0.61529193    -0.74200
O333        O  0.17584423  0.46705118  0.63451229    -0.74800
O334        O  0.11513565  0.44631784  0.67036612    -0.74200
O335        O  0.13230122  0.37402334  0.61175106    -0.75000
O336        O  0.14246964  0.48259185  0.66881233    -0.74400
O337        O  0.11278539  0.37421948  0.63764986    -0.74800
O338        O  0.08037668  0.44769403  0.63807816    -0.74700
O339        O  0.08304903  0.49945980  0.61923451    -0.74500
C340        C  0.12148704  0.46520772  0.57165375     0.77300
C341        C  0.18173411  0.44371906  0.62139079     0.77800
C342        C  0.13520453  0.56706502  0.62535145     0.76700
C343        C  0.12864049  0.46650130  0.67852400     0.77100
C344        C  0.12222438  0.35606590  0.62441192     0.78200
C345        C  0.07264379  0.47669110  0.62952100     0.77300
Zn346      Zn  0.14052247  0.92792905  0.64954463     1.49700
Zn347      Zn  0.14719789  0.98652883  0.61450765     1.49400
Zn348      Zn  0.10881474  0.92910412  0.61456919     1.49100
Zn349      Zn  0.11104324  0.99668873  0.64462329     1.49500
O350        O  0.12704865  0.95999043  0.63050670    -1.84000
O351        O  0.16969758  0.92551656  0.64435469    -0.74600
O352        O  0.14210422  0.97427116  0.58642141    -0.74400
O353        O  0.11217261  0.87259634  0.62102694    -0.74000
O354        O  0.17539711  0.96648290  0.62034298    -0.74600
O355        O  0.13157212  0.87317229  0.64701325    -0.74200
O356        O  0.11523407  0.93656224  0.58643841    -0.74800
O357        O  0.08240171  0.99341912  0.63818407    -0.74200
O358        O  0.14471004  0.04556765  0.61753853    -0.75000
O359        O  0.07973010  0.94448159  0.61774689    -0.74400
O360        O  0.11926093  0.04963149  0.63794742    -0.74800
O361        O  0.11336086  0.99124398  0.67311709    -0.74700
O362        O  0.13640229  0.94599661  0.67697654    -0.74500
C363        C  0.18155984  0.94115495  0.63237437     0.77300
C364        C  0.12888625  0.95479184  0.57750015     0.77800
C365        C  0.12142696  0.85495449  0.63445289     0.76700
C366        C  0.07187083  0.97183115  0.62746194     0.77100
C367        C  0.13227961  0.06560565  0.62732494     0.78200
C368        C  0.12446264  0.97096709  0.68391608     0.77300
Zn369      Zn  0.38662893  0.23832398  0.13930579     1.49700
Zn370      Zn  0.35847589  0.16570556  0.14357893     1.49400
Zn371      Zn  0.35061959  0.22550058  0.10923243     1.49100
Zn372      Zn  0.39035737  0.17104809  0.10932653     1.49500
O373        O  0.37133318  0.20017421  0.12515287    -1.84000
O374        O  0.38400955  0.23154706  0.16785744    -0.74600
O375        O  0.32897466  0.16350298  0.13913192    -0.74400
O376        O  0.35098985  0.28466057  0.11330931    -0.74000
O377        O  0.36300870  0.18237546  0.17116650    -0.74600
O378        O  0.37664467  0.29054641  0.13334725    -0.74200
O379        O  0.32278084  0.20142487  0.11396978    -0.74800
O380        O  0.38502876  0.18205093  0.08135968    -0.74200
O381        O  0.36771750  0.11096186  0.13953133    -0.75000
O382        O  0.35731256  0.21720224  0.08126049    -0.74400
O383        O  0.38654335  0.11367965  0.11313549    -0.74800
O384        O  0.41938032  0.18544960  0.11485335    -0.74700
O385        O  0.41569783  0.23818027  0.13280679    -0.74500
C386        C  0.37373620  0.20905625  0.17842668     0.77300
C387        C  0.31693099  0.17730191  0.12676807     0.77800
C388        C  0.36290914  0.30549799  0.12325226     0.76700
C389        C  0.37137658  0.20008885  0.07234297     0.77100
C390        C  0.37754268  0.09436922  0.12613914     0.78200
C391        C  0.42671293  0.21456619  0.12366759     0.77300
Zn392      Zn  0.36109418  0.66542822  0.14533528     1.49700
Zn393      Zn  0.39088226  0.67123089  0.10897301     1.49400
Zn394      Zn  0.35182865  0.72556866  0.11072533     1.49100
Zn395      Zn  0.38801298  0.73861981  0.14015417     1.49500
O396        O  0.37279934  0.70013735  0.12611630    -1.84000
O397        O  0.36942652  0.61033050  0.14011138    -0.74600
O398        O  0.38424947  0.68145669  0.08099766    -0.74400
O399        O  0.32436480  0.70390199  0.11794187    -0.74000
O400        O  0.38715749  0.61361596  0.11297073    -0.74600
O401        O  0.33134219  0.66485124  0.14250959    -0.74200
O402        O  0.35638095  0.71579986  0.08223995    -0.74800
O403        O  0.37820211  0.79124195  0.13442806    -0.74200
O404        O  0.41995096  0.68744487  0.11276272    -0.75000
O405        O  0.35301617  0.78448596  0.11391114    -0.74400
O406        O  0.41650760  0.73790590  0.13237149    -0.74800
O407        O  0.38642694  0.73263288  0.16886975    -0.74700
O408        O  0.36752454  0.68080014  0.17303678    -0.74500
C409        C  0.37849592  0.59406169  0.12612150     0.77300
C410        C  0.37000389  0.69889412  0.07258140     0.77800
C411        C  0.31885060  0.67987631  0.13092392     0.76700
C412        C  0.36471254  0.80565691  0.12386313     0.77100
C413        C  0.42730190  0.71626361  0.12184978     0.78200
C414        C  0.37762313  0.70882785  0.17994487     0.77300
Zn415      Zn  0.38505986  0.25337141  0.35708813     1.49700
Zn416      Zn  0.38830333  0.31775528  0.38889698     1.49400
Zn417      Zn  0.35657411  0.32413934  0.35371449     1.49100
Zn418      Zn  0.34872992  0.26342548  0.38773914     1.49500
O419        O  0.36952326  0.28970910  0.37218329    -1.84000
O420        O  0.41413828  0.25452551  0.36305132    -0.74600
O421        O  0.38558800  0.37534166  0.38386232    -0.74400
O422        O  0.35978091  0.30701913  0.32582272    -0.74000
O423        O  0.41740124  0.30107120  0.38480340    -0.74600
O424        O  0.38230746  0.26048150  0.32865849    -0.74200
O425        O  0.36653502  0.37806240  0.35763090    -0.74800
O426        O  0.32093246  0.28701351  0.38251783    -0.74200
O427        O  0.38161094  0.30769015  0.41697984    -0.75000
O428        O  0.32737293  0.32834551  0.35885760    -0.74400
O429        O  0.35465580  0.27039171  0.41646782    -0.74800
O430        O  0.34912819  0.20509049  0.38199026    -0.74700
O431        O  0.37511731  0.20079559  0.36214073    -0.74500
C432        C  0.42502395  0.27486685  0.37409695     0.77300
C433        C  0.37668717  0.39467349  0.37076417     0.77800
C434        C  0.37105232  0.28144713  0.31837393     0.76700
C435        C  0.31519031  0.31306613  0.37064913     0.77100
C436        C  0.36811295  0.28863014  0.42578863     0.78200
C437        C  0.36105904  0.18515300  0.37159348     0.77300
Zn438      Zn  0.35570909  0.82475793  0.39086539     1.49700
Zn439      Zn  0.35087690  0.75946513  0.35953035     1.49400
Zn440      Zn  0.38782940  0.81936045  0.35645577     1.49100
Zn441      Zn  0.38615390  0.75707358  0.39058869     1.49500
O442        O  0.37024574  0.79016466  0.37406918    -1.84000
O443        O  0.32650536  0.82308508  0.38601624    -0.74600
O444        O  0.35901190  0.75923264  0.33175931    -0.74400
O445        O  0.38293817  0.87744209  0.35952162    -0.74000
O446        O  0.32267086  0.78282662  0.36125869    -0.74600
O447        O  0.36320158  0.87888177  0.38527557    -0.74200
O448        O  0.38342795  0.80212653  0.32853683    -0.74800
O449        O  0.41485436  0.76119022  0.38422214    -0.74200
O450        O  0.35229045  0.70249818  0.36748919    -0.75000
O451        O  0.41697440  0.80753770  0.36217036    -0.74400
O452        O  0.37868042  0.70231553  0.38679318    -0.74800
O453        O  0.38334380  0.76897054  0.41879297    -0.74700
O454        O  0.36084378  0.81568385  0.41883814    -0.74500
C455        C  0.31564698  0.80760352  0.37315130     0.77300
C456        C  0.37181718  0.77664877  0.32136162     0.77800
C457        C  0.37309931  0.89618829  0.37226222     0.76700
C458        C  0.42515333  0.78243095  0.37308194     0.77100
C459        C  0.36515028  0.68441851  0.37763181     0.78200
C460        C  0.37250734  0.79307972  0.42781563     0.77300
Zn461      Zn  0.60901996  0.32108674  0.11422220     1.49700
Zn462      Zn  0.64171173  0.32572980  0.14818883     1.49400
Zn463      Zn  0.61341281  0.25373562  0.14514751     1.49100
Zn464      Zn  0.64768355  0.26497266  0.11352797     1.49500
O465        O  0.62800528  0.29148805  0.13006164    -1.84000
O466        O  0.61275760  0.37863120  0.11908038    -0.74600
O467        O  0.63783284  0.31026101  0.17616622    -0.74400
O468        O  0.58437511  0.25504003  0.13926054    -0.74000
O469        O  0.63382369  0.38120289  0.14376320    -0.74600
O470        O  0.58019911  0.30446034  0.11922512    -0.74200
O471        O  0.61712880  0.26054769  0.17364357    -0.74800
O472        O  0.64647715  0.20611963  0.11690873    -0.74200
O473        O  0.67089397  0.32588150  0.14290585    -0.75000
O474        O  0.62256823  0.20063931  0.13895838    -0.74400
O475        O  0.67565291  0.28650275  0.11795358    -0.74800
O476        O  0.64142763  0.27497003  0.08574809    -0.74700
O477        O  0.61446458  0.31207230  0.08571398    -0.74500
C478        C  0.62318373  0.39800171  0.13108198     0.77300
C479        C  0.62755240  0.28340188  0.18387854     0.77800
C480        C  0.57314132  0.27632950  0.12902971     0.76700
C481        C  0.63528845  0.18552997  0.12768428     0.77100
C482        C  0.68223740  0.31083404  0.13026755     0.78200
C483        C  0.62799297  0.29348575  0.07671705     0.77300
Zn484      Zn  0.64978403  0.76651763  0.10637390     1.49700
Zn485      Zn  0.64032416  0.82324813  0.14131292     1.49400
Zn486      Zn  0.61061081  0.82237246  0.10572639     1.49100
Zn487      Zn  0.61257007  0.75070040  0.13378352     1.49500
O488        O  0.62838017  0.79070408  0.12160336    -1.84000
O489        O  0.67673057  0.79204142  0.11167668    -0.74600
O490        O  0.63061801  0.87792313  0.13951793    -0.74400
O491        O  0.61769866  0.81464557  0.07779595    -0.74000
O492        O  0.66968336  0.82826763  0.13726891    -0.74600
O493        O  0.64421291  0.77614053  0.07836131    -0.74200
O494        O  0.61424701  0.87926783  0.11169117    -0.74800
O495        O  0.58385639  0.75380183  0.12669336    -0.74200
O496        O  0.63549282  0.80252956  0.16782555    -0.75000
O497        O  0.58133851  0.80749080  0.10927190    -0.74400
O498        O  0.61486435  0.75319878  0.16252773    -0.74800
O499        O  0.62195244  0.69851679  0.12602322    -0.74700
O500        O  0.65042334  0.70743542  0.11017577    -0.74500
C501        C  0.68195856  0.81624139  0.12463969     0.77300
C502        C  0.62201058  0.89656962  0.12607925     0.77800
C503        C  0.63132782  0.79577019  0.06911637     0.76700
C504        C  0.57344124  0.77810652  0.11738581     0.77100
C505        C  0.62486579  0.77460709  0.17384620     0.78200
C506        C  0.63722075  0.68524863  0.11750171     0.77300
Zn507      Zn  0.64959880  0.24423975  0.36548340     1.49700
Zn508      Zn  0.61248446  0.24800095  0.39485089     1.49400
Zn509      Zn  0.61103160  0.18710868  0.36076236     1.49100
Zn510      Zn  0.64180971  0.17768516  0.39572289     1.49500
O511        O  0.62871605  0.21435842  0.37887720    -1.84000
O512        O  0.64760588  0.30167774  0.37260313    -0.74600
O513        O  0.58328173  0.24319274  0.38927850    -0.74400
O514        O  0.61774664  0.20387832  0.33345760    -0.74000
O515        O  0.62012679  0.30266246  0.39049354    -0.74600
O516        O  0.64425357  0.24184853  0.33698253    -0.74200
O517        O  0.58163987  0.19999745  0.36567215    -0.74800
O518        O  0.63373506  0.12445156  0.38933609    -0.74200
O519        O  0.61608272  0.23717254  0.42288351    -0.75000
O520        O  0.61485898  0.12871698  0.36315770    -0.74400
O521        O  0.63625355  0.18651922  0.42359661    -0.74800
O522        O  0.67111342  0.17723060  0.39192029    -0.74700
O523        O  0.67773229  0.22168783  0.36979846    -0.74500
C524        C  0.63420719  0.32020313  0.38190611     0.77300
C525        C  0.57312210  0.22318878  0.37743388     0.77800
C526        C  0.63124617  0.22562121  0.32633019     0.76700
C527        C  0.62407843  0.10858517  0.37573988     0.77100
C528        C  0.62574534  0.21172952  0.43220273     0.78200
C529        C  0.68341697  0.19444041  0.38096749     0.77300
Zn530      Zn  0.61237933  0.75111506  0.35343836     1.49700
Zn531      Zn  0.64027611  0.67904428  0.35071878     1.49400
Zn532      Zn  0.64783151  0.74187785  0.38373614     1.49100
Zn533      Zn  0.60846683  0.68699519  0.38508002     1.49500
O534        O  0.62738203  0.71467617  0.36852207    -1.84000
O535        O  0.61467097  0.74160428  0.32537701    -0.74600
O536        O  0.66948097  0.67685400  0.35538194    -0.74400
O537        O  0.64779041  0.80004797  0.37790136    -0.74000
O538        O  0.63536706  0.69198167  0.32278836    -0.74600
O539        O  0.62212196  0.80387186  0.35785939    -0.74200
O540        O  0.67525816  0.71777175  0.37943488    -0.74800
O541        O  0.61375492  0.70062549  0.41285604    -0.74200
O542        O  0.63181373  0.62494452  0.35614608    -0.75000
O543        O  0.64153166  0.73580293  0.41207921    -0.74400
O544        O  0.61208171  0.62903475  0.38183785    -0.74800
O545        O  0.57967236  0.70201800  0.37994513    -0.74700
O546        O  0.58362910  0.75107888  0.35977371    -0.74500
C547        C  0.62451357  0.71792747  0.31513355     0.77300
C548        C  0.68123224  0.69176869  0.36767091     0.77800
C549        C  0.63591278  0.81985936  0.36746790     0.76700
C550        C  0.62749111  0.71940020  0.42137364     0.77100
C551        C  0.62177348  0.60900351  0.36952451     0.78200
C552        C  0.57247772  0.72971472  0.37002264     0.77300
Zn553      Zn  0.85854813  0.08105876  0.35143357     1.49700
Zn554      Zn  0.88915166  0.01463733  0.35554177     1.49400
Zn555      Zn  0.89035881  0.08117037  0.38623264     1.49100
Zn556      Zn  0.85302764  0.02119741  0.38613803     1.49500
O557        O  0.87265713  0.04952267  0.37022270    -1.84000
O558        O  0.86113998  0.06193641  0.32403842    -0.74600
O559        O  0.91782193  0.01801843  0.36230963    -0.74400
O560        O  0.88706901  0.13731424  0.37907771    -0.74000
O561        O  0.88630034  0.02092654  0.32705056    -0.74600
O562        O  0.86748002  0.13591592  0.35323687    -0.74200
O563        O  0.91968583  0.06530115  0.38382277    -0.74800
O564        O  0.85896806  0.03048999  0.41451026    -0.74200
O565        O  0.88105821  0.96123046  0.36115888    -0.75000
O566        O  0.88265261  0.07550900  0.41424583    -0.74400
O567        O  0.85501740  0.96262993  0.38092148    -0.74800
O568        O  0.82473018  0.04265984  0.38175500    -0.74700
O569        O  0.82979752  0.08397206  0.35776767    -0.74500
C570        C  0.87372591  0.03874882  0.31667843     0.77300
C571        C  0.92796307  0.03883911  0.37376430     0.77800
C572        C  0.87763076  0.15454409  0.36564165     0.76700
C573        C  0.87051080  0.05383186  0.42336868     0.77100
C574        C  0.86772168  0.94387534  0.37082279     0.78200
C575        C  0.81831848  0.06850786  0.37011826     0.77300
Zn576      Zn  0.85745858  0.58236109  0.39256489     1.49700
Zn577      Zn  0.88611208  0.51154791  0.38951807     1.49400
Zn578      Zn  0.84851606  0.51855398  0.36095979     1.49100
Zn579      Zn  0.88634740  0.57528173  0.35609481     1.49500
O580        O  0.86966464  0.54678263  0.37457932    -1.84000
O581        O  0.86445353  0.57142795  0.41999009    -0.74600
O582        O  0.87669171  0.45787769  0.38547358    -0.74400
O583        O  0.82105665  0.54125902  0.36662707    -0.74000
O584        O  0.88542808  0.52211428  0.41831463    -0.74600
O585        O  0.82804852  0.58204688  0.39039554    -0.74200
O586        O  0.84946357  0.46150192  0.36740695    -0.74800
O587        O  0.87956362  0.55933148  0.32865107    -0.74200
O588        O  0.91438208  0.51293169  0.38038931    -0.75000
O589        O  0.85349457  0.52049030  0.33230831    -0.74400
O590        O  0.91554962  0.56199091  0.35965291    -0.74800
O591        O  0.88243748  0.63331198  0.35919764    -0.74700
O592        O  0.86466401  0.63651878  0.38620739    -0.74500
C593        C  0.87566227  0.54679016  0.42816309     0.77300
C594        C  0.86232954  0.44179207  0.37664886     0.77800
C595        C  0.81558098  0.56638277  0.37906699     0.76700
C596        C  0.86638156  0.53688095  0.32157104     0.77100
C597        C  0.92404157  0.53487973  0.36900300     0.78200
C598        C  0.87359266  0.65291761  0.37226074     0.77300
Zn599      Zn  0.85719467  0.43152221  0.14424988     1.49700
Zn600      Zn  0.88377668  0.50542343  0.13919127     1.49400
Zn601      Zn  0.88843605  0.43577816  0.10907061     1.49100
Zn602      Zn  0.84902092  0.48829021  0.10855270     1.49500
O603        O  0.86959752  0.46528882  0.12511804    -1.84000
O604        O  0.86124026  0.44975589  0.17172576    -0.74600
O605        O  0.91292862  0.50451111  0.13294939    -0.74400
O606        O  0.88536786  0.37853004  0.11441716    -0.74000
O607        O  0.88058840  0.50113338  0.16806173    -0.74600
O608        O  0.86708734  0.37695366  0.14123759    -0.74200
O609        O  0.91701918  0.45333142  0.11390771    -0.74800
O610        O  0.85566250  0.47950569  0.08068413    -0.74200
O611        O  0.87318384  0.55718715  0.13210175    -0.75000
O612        O  0.88291515  0.44332548  0.08055471    -0.74400
O613        O  0.84794638  0.54692474  0.11192280    -0.74800
O614        O  0.82207418  0.46278157  0.11324742    -0.74700
O615        O  0.82783930  0.42752502  0.13949608    -0.74500
C616        C  0.87092942  0.47802824  0.17887215     0.77300
C617        C  0.92414211  0.48212443  0.12318990     0.77800
C618        C  0.87680456  0.35985100  0.12794076     0.76700
C619        C  0.86929146  0.46154134  0.07159670     0.77100
C620        C  0.85915191  0.56964836  0.12153861     0.78200
C621        C  0.81617458  0.43951880  0.12635350     0.77300
Zn622      Zn  0.85394695  0.93182230  0.14082263     1.49700
Zn623      Zn  0.88643035  0.93300979  0.10657901     1.49400
Zn624      Zn  0.84973705  0.99386350  0.10640686     1.49100
Zn625      Zn  0.88491060  0.99890101  0.13788690     1.49500
O626        O  0.86860604  0.96438497  0.12265849    -1.84000
O627        O  0.86118298  0.87588046  0.13695742    -0.74600
O628        O  0.88053332  0.94202071  0.07860367    -0.74400
O629        O  0.82106603  0.97463637  0.11051976    -0.74000
O630        O  0.88178342  0.87613632  0.11179804    -0.74600
O631        O  0.82495078  0.93450277  0.13531451    -0.74200
O632        O  0.85584637  0.98473892  0.07819452    -0.74800
O633        O  0.87708116  0.05326164  0.13317130    -0.74200
O634        O  0.91571277  0.94661328  0.11048967    -0.75000
O635        O  0.85247914  0.05224853  0.11168704    -0.74400
O636        O  0.91382106  0.99355282  0.13228770    -0.74800
O637        O  0.88179881  0.99052745  0.16601514    -0.74700
O638        O  0.85781977  0.94682392  0.16883625    -0.74500
C639        C  0.87150092  0.85799124  0.12435396     0.77300
C640        C  0.86825778  0.96309989  0.06940371     0.77800
C641        C  0.81396554  0.95087168  0.12284482     0.76700
C642        C  0.86433513  0.07066470  0.12281664     0.77100
C643        C  0.92399433  0.97179253  0.12128266     0.78200
C644        C  0.87014457  0.97037655  0.17632750     0.77300
Zn645      Zn  0.13953286  0.07135229  0.14854851     1.49700
Zn646      Zn  0.14566244  0.00939105  0.11472176     1.49400
Zn647      Zn  0.10926042  0.00321839  0.14523163     1.49100
Zn648      Zn  0.10827253  0.06754976  0.11307495     1.49500
O649        O  0.12576003  0.03787331  0.13017477    -1.84000
O650        O  0.16901331  0.07039180  0.14410285    -0.74600
O651        O  0.14487643  0.95183394  0.12184462    -0.74400
O652        O  0.11114847  0.01258131  0.17357015    -0.74000
O653        O  0.17360766  0.03293203  0.11838433    -0.74600
O654        O  0.13383150  0.05860416  0.17666699    -0.74200
O655        O  0.11846022  0.94955414  0.14120141    -0.74800
O656        O  0.07920213  0.05170182  0.11569328    -0.74200
O657        O  0.13927911  0.01382379  0.08615456    -0.75000
O658        O  0.08045371  0.00598986  0.13816951    -0.74400
O659        O  0.11527285  0.05790982  0.08532101    -0.74800
O660        O  0.11191659  0.12474079  0.11804599    -0.74700
O661        O  0.13226687  0.12628974  0.14332422    -0.74500
C662        C  0.18029710  0.05639371  0.13108953     0.77300
C663        C  0.13255288  0.93282613  0.13224393     0.77800
C664        C  0.12177970  0.03437947  0.18412959     0.76700
C665        C  0.07070437  0.02635606  0.12621230     0.77100
C666        C  0.12730912  0.03527639  0.07672255     0.78200
C667        C  0.12209798  0.14350498  0.13045445     0.77300
Zn668      Zn  0.14187887  0.57321029  0.10870874     1.49700
Zn669      Zn  0.11275505  0.50267434  0.10920328     1.49400
Zn670      Zn  0.14811565  0.50913114  0.14055810     1.49100
Zn671      Zn  0.10919817  0.56524514  0.14219550     1.49500
O672        O  0.12797673  0.53742305  0.12545823    -1.84000
O673        O  0.13819373  0.56208092  0.08064201    -0.74600
O674        O  0.12134347  0.44899362  0.11393532    -0.74400
O675        O  0.17616975  0.53247183  0.13761738    -0.74000
O676        O  0.11717895  0.51270999  0.08110742    -0.74600
O677        O  0.17086789  0.57449738  0.11406401    -0.74200
O678        O  0.14735437  0.45141510  0.13371591    -0.74800
O679        O  0.11327803  0.54831449  0.16994683    -0.74200
O680        O  0.08332223  0.50567748  0.11403944    -0.75000
O681        O  0.14100522  0.51302746  0.16867935    -0.74400
O682        O  0.08028785  0.55340600  0.13525801    -0.74800
O683        O  0.11401571  0.62330272  0.14010156    -0.74700
O684        O  0.13352827  0.62690566  0.11425213    -0.74500
C685        C  0.12775663  0.53695078  0.07187703     0.77300
C686        C  0.13508649  0.43228273  0.12333591     0.77800
C687        C  0.18246108  0.55875024  0.12617981     0.76700
C688        C  0.12677348  0.52829711  0.17815140     0.77100
C689        C  0.07251273  0.52780674  0.12432023     0.78200
C690        C  0.12377853  0.64309489  0.12774151     0.77300
Zn691      Zn  0.14654928  0.48801907  0.35887221     1.49700
Zn692      Zn  0.10674358  0.43435527  0.35529110     1.49400
Zn693      Zn  0.13577644  0.42555541  0.39102002     1.49100
Zn694      Zn  0.10946826  0.50010823  0.38757432     1.49500
O695        O  0.12466989  0.46218562  0.37294849    -1.84000
O696        O  0.14108439  0.48399950  0.33022980    -0.74600
O697        O  0.10861035  0.37578978  0.35896688    -0.74400
O698        O  0.16508310  0.41903624  0.38663542    -0.74000
O699        O  0.11363137  0.44831871  0.32782490    -0.74600
O700        O  0.17351189  0.46166839  0.36411155    -0.74200
O701        O  0.12428004  0.37297829  0.38716775    -0.74800
O702        O  0.11172847  0.49281196  0.41651774    -0.74200
O703        O  0.07798740  0.45122803  0.35909490    -0.75000
O704        O  0.13071641  0.44049323  0.41847689    -0.74400
O705        O  0.08077652  0.49942786  0.38017665    -0.74800
O706        O  0.11856052  0.55281201  0.38089203    -0.74700
O707        O  0.14680420  0.54655217  0.36440044    -0.74500
C708        C  0.12742359  0.46839136  0.32010555     0.77300
C709        C  0.11524660  0.35657137  0.37329133     0.77800
C710        C  0.17806614  0.43394641  0.37549774     0.76700
C711        C  0.12074001  0.46734118  0.42650458     0.77100
C712        C  0.07034028  0.47871526  0.36889529     0.78200
C713        C  0.13331159  0.56756502  0.37211284     0.77300
Zn714      Zn  0.11489424  0.99677904  0.39675662     1.49700
Zn715      Zn  0.11027185  0.93650201  0.36198528     1.49400
Zn716      Zn  0.14900388  0.99393618  0.36382880     1.49100
Zn717      Zn  0.14391580  0.92647997  0.39437138     1.49500
O718        O  0.12945593  0.96361069  0.37893097    -1.84000
O719        O  0.08570230  0.99489461  0.39164713    -0.74600
O720        O  0.11465416  0.95414878  0.33434815    -0.74400
O721        O  0.14652347  0.05164091  0.37040630    -0.74000
O722        O  0.08150983  0.95073872  0.36874805    -0.74600
O723        O  0.12267008  0.05193943  0.39274113    -0.74200
O724        O  0.14142542  0.99183556  0.33586663    -0.74800
O725        O  0.17281391  0.92851195  0.38926090    -0.74200
O726        O  0.11416925  0.87765970  0.36327943    -0.75000
O727        O  0.17767186  0.97183374  0.36613332    -0.74400
O728        O  0.13692382  0.87312558  0.38642891    -0.74800
O729        O  0.13976967  0.93263028  0.42287895    -0.74700
O730        O  0.11878540  0.98206618  0.42467497    -0.74500
C731        C  0.07440197  0.97571043  0.38047659     0.77300
C732        C  0.12743633  0.97616281  0.32626225     0.77800
C733        C  0.13470416  0.06979373  0.38169756     0.76700
C734        C  0.18423831  0.94536443  0.37734019     0.77100
C735        C  0.12577907  0.85753089  0.37383882     0.78200
C736        C  0.12923035  0.95597719  0.43272089     0.77300
C737        C  0.12740469  0.81523226  0.37130961    -0.01200
C738        C  0.14592731  0.79754925  0.37414526    -0.09200
C739        C  0.14804828  0.75752574  0.37300501    -0.18000
C740        C  0.13149945  0.73350629  0.36933913     0.04400
C741        C  0.11268620  0.75160387  0.36638625     0.18600
C742        C  0.11088478  0.79220344  0.36699515    -0.19400
C743        C  0.09570254  0.72901466  0.36338804    -0.20700
C744        C  0.09686738  0.68886754  0.36378978    -0.19200
C745        C  0.11511964  0.67031160  0.36676545     0.20000
C746        C  0.13282607  0.69221327  0.36906960     0.02100
C747        C  0.15099178  0.67171337  0.37117752    -0.14000
C748        C  0.15137979  0.63119493  0.37162830    -0.11700
C749        C  0.13371284  0.61008595  0.37031400     0.01600
C750        C  0.11570537  0.62983247  0.36765055    -0.23900
H751        H  0.15894756  0.81489899  0.37734581     0.09600
H752        H  0.16275624  0.74625839  0.37557411     0.13200
H753        H  0.09649776  0.80576473  0.36492937     0.11900
H754        H  0.08133383  0.74248722  0.36114402     0.13100
H755        H  0.08335685  0.67218149  0.36183876     0.12100
H756        H  0.16515285  0.68612292  0.37248455     0.09200
H757        H  0.16543500  0.61638241  0.37353680     0.12500
H758        H  0.10200108  0.61346810  0.36621814     0.14400
C759        C  0.11366870  0.31404811  0.37383204    -0.01200
C760        C  0.11035353  0.29553313  0.39149193    -0.09200
C761        C  0.11292822  0.25566735  0.39331521    -0.18000
C762        C  0.11954329  0.23304135  0.37754123     0.04400
C763        C  0.12198995  0.25177259  0.35940221     0.18600
C764        C  0.11870804  0.29185438  0.35763983    -0.19400
C765        C  0.12852412  0.23070375  0.34333958    -0.20700
C766        C  0.13313556  0.19158030  0.34496324    -0.19200
C767        C  0.13126915  0.17244630  0.36267994     0.20000
C768        C  0.12426946  0.19281880  0.37920394     0.02100
C769        C  0.12248133  0.17205957  0.39670015    -0.14000
C770        C  0.12687342  0.13265203  0.39759814    -0.11700
C771        C  0.13352610  0.11256102  0.38125899     0.01600
C772        C  0.13603701  0.13282468  0.36389979    -0.23900
H773        H  0.10636793  0.31228021  0.40415152     0.09600
H774        H  0.11027761  0.24372674  0.40746375     0.13200
H775        H  0.12148617  0.30621325  0.34398177     0.11900
H776        H  0.13039147  0.24473664  0.32946953     0.13100
H777        H  0.13830530  0.17620562  0.33227163     0.12100
H778        H  0.11739018  0.18522803  0.40993312     0.09200
H779        H  0.12466128  0.11754389  0.41112638     0.12500
H780        H  0.14077964  0.11731121  0.35107742     0.14400
C781        C  0.12711450  0.47504576  0.29898866    -0.01200
C782        C  0.10958412  0.46913313  0.28845857    -0.09200
C783        C  0.10863225  0.47825532  0.26885073    -0.18000
C784        C  0.12536940  0.49329728  0.25901235     0.04400
C785        C  0.14336787  0.49763757  0.26956599     0.18600
C786        C  0.14399469  0.48910688  0.28937624    -0.19400
C787        C  0.16066534  0.51039099  0.26028459    -0.20700
C788        C  0.16057374  0.51839875  0.24063687    -0.19200
C789        C  0.14302395  0.51512958  0.22992708     0.20000
C790        C  0.12500967  0.50361995  0.23904576     0.02100
C791        C  0.10743305  0.50336897  0.22780109    -0.14000
C792        C  0.10793204  0.51279963  0.20819040    -0.11700
C793        C  0.12593586  0.52193103  0.19914553     0.01600
C794        C  0.14339610  0.52328663  0.21009474    -0.23900
H795        H  0.09633778  0.45817426  0.29550089     0.09600
H796        H  0.09465521  0.47283571  0.26174825     0.13200
H797        H  0.15771112  0.49334452  0.29732252     0.11900
H798        H  0.17444689  0.51365364  0.26822253     0.13100
H799        H  0.17429956  0.52755772  0.23380029     0.12100
H800        H  0.09307102  0.49638548  0.23378168     0.09200
H801        H  0.09427325  0.51180938  0.19992036     0.12500
H802        H  0.15730690  0.53100904  0.20313958     0.14400
C803        C  0.13381169  0.89022178  0.13382365    -0.01200
C804        C  0.12248620  0.87108641  0.14791091    -0.09200
C805        C  0.12119834  0.83090532  0.14824393    -0.18000
C806        C  0.13112072  0.80825119  0.13428895     0.04400
C807        C  0.14350863  0.82762440  0.12068013     0.18600
C808        C  0.14482768  0.86824203  0.12062560    -0.19400
C809        C  0.15403718  0.80641114  0.10684235    -0.20700
C810        C  0.15210795  0.76643430  0.10586434    -0.19200
C811        C  0.13949837  0.74675330  0.11861542     0.20000
C812        C  0.12891091  0.76722363  0.13312283     0.02100
C813        C  0.11627333  0.74577522  0.14553184    -0.14000
C814        C  0.11432053  0.70570708  0.14360443    -0.11700
C815        C  0.12480964  0.68574898  0.12927407     0.01600
C816        C  0.13736346  0.70659958  0.11683682    -0.23900
H817        H  0.11412784  0.88731477  0.15856779     0.09600
H818        H  0.11202714  0.81858385  0.15942024     0.13200
H819        H  0.15375135  0.88274694  0.10977278     0.11900
H820        H  0.16361969  0.82088460  0.09652976     0.13100
H821        H  0.16031977  0.75084528  0.09485520     0.12100
H822        H  0.10761639  0.75903968  0.15683009     0.09200
H823        H  0.10462880  0.69030172  0.15345834     0.12500
H824        H  0.14571394  0.69152340  0.10573965     0.14400
C825        C  0.13588687  0.38958029  0.12236954    -0.01200
C826        C  0.12489704  0.37024766  0.10812153    -0.09200
C827        C  0.12284002  0.33021537  0.10840065    -0.18000
C828        C  0.13162134  0.30792013  0.12314872     0.04400
C829        C  0.14380507  0.32732001  0.13689557     0.18600
C830        C  0.14587634  0.36782154  0.13636627    -0.19400
C831        C  0.15338972  0.30627949  0.15139195    -0.20700
C832        C  0.15079704  0.26646788  0.15279243    -0.19200
C833        C  0.13833921  0.24683110  0.13989617     0.20000
C834        C  0.12854856  0.26721293  0.12487616     0.02100
C835        C  0.11580625  0.24605466  0.11249192    -0.14000
C836        C  0.11324587  0.20625017  0.11471187    -0.11700
C837        C  0.12321713  0.18618210  0.12931876     0.01600
C838        C  0.13562894  0.20681453  0.14195224    -0.23900
H839        H  0.11736385  0.38626708  0.09686043     0.09600
H840        H  0.11403994  0.31774222  0.09699337     0.13200
H841        H  0.15454121  0.38248383  0.14735524     0.11900
H842        H  0.16281792  0.32075585  0.16182515     0.13100
H843        H  0.15837430  0.25099819  0.16422522     0.12100
H844        H  0.10753762  0.25934018  0.10095856     0.09200
H845        H  0.10362285  0.19105802  0.10472084     0.12500
H846        H  0.14349465  0.19163686  0.15330733     0.14400
C847        C  0.12044883  0.02993776  0.20537654    -0.01200
C848        C  0.10616015  0.00508660  0.21338999    -0.09200
C849        C  0.10600846  0.99696407  0.23309226    -0.18000
C850        C  0.12035774  0.01327671  0.24556678     0.04400
C851        C  0.13424852  0.03991603  0.23756091     0.18600
C852        C  0.13411773  0.04811482  0.21767668    -0.19400
C853        C  0.14853442  0.05743792  0.24935790    -0.20700
C854        C  0.14967454  0.04833949  0.26886309    -0.19200
C855        C  0.13661029  0.02136697  0.27704927     0.20000
C856        C  0.12164917  0.00362314  0.26558540     0.02100
C857        C  0.10889959  0.97645736  0.27460208    -0.14000
C858        C  0.11096488  0.96733771  0.29412879    -0.11700
C859        C  0.12575791  0.98482502  0.30536394     0.01600
C860        C  0.13851887  0.01189167  0.29666441    -0.23900
H861        H  0.09520427  0.99104574  0.20431395     0.09600
H862        H  0.09466176  0.97732269  0.23800661     0.13200
H863        H  0.14514813  0.06762036  0.21169284     0.11900
H864        H  0.15907973  0.07796002  0.24340552     0.13100
H865        H  0.16103849  0.06214607  0.27756170     0.12100
H866        H  0.09723599  0.96158386  0.26698871     0.09200
H867        H  0.10084431  0.94648330  0.30045124     0.12500
H868        H  0.14996800  0.02587738  0.30519256     0.14400
C869        C  0.04911954  0.01981290  0.12459447    -0.01200
C870        C  0.04017249  0.01471117  0.10655411    -0.09200
C871        C  0.01996340  0.00533872  0.10517551    -0.18000
C872        C  0.00799733  0.00180270  0.12191504     0.04400
C873        C  0.01709295  0.00889544  0.14011169     0.18600
C874        C  0.03753279  0.01674501  0.14129742    -0.19400
C875        C  0.00572511  0.00844562  0.15702929    -0.20700
C876        C  0.98539027  0.00159949  0.15628518    -0.19200
C877        C  0.97607750  0.99344569  0.13870062     0.20000
C878        C  0.98729851  0.99227018  0.12130240     0.02100
C879        C  0.97730840  0.98123562  0.10416584    -0.14000
C880        C  0.95689562  0.97310693  0.10426061    -0.11700
C881        C  0.94581559  0.97650760  0.12128592     0.01600
C882        C  0.95553822  0.98644487  0.13845015    -0.23900
H883        H  0.04897727  0.01694680  0.09349678     0.09600
H884        H  0.01404103  0.00164812  0.09083459     0.13200
H885        H  0.04444515  0.02110445  0.15527450     0.11900
H886        H  0.01255241  0.01411638  0.17091247     0.13100
H887        H  0.97691994  0.00222821  0.16960386     0.12100
H888        H  0.98492531  0.97826871  0.09053975     0.09200
H889        H  0.94963606  0.96527758  0.09086534     0.12500
H890        H  0.94705095  0.98847443  0.15174277     0.14400
C891        C  0.85663185  0.61171265  0.12033973    -0.01200
C892        C  0.86079577  0.63105270  0.10310710    -0.09200
C893        C  0.86308793  0.67127584  0.10292982    -0.18000
C894        C  0.86111972  0.69322188  0.12010614     0.04400
C895        C  0.85539545  0.67342193  0.13721999     0.18600
C896        C  0.85354306  0.63299438  0.13724121    -0.19400
C897        C  0.85207961  0.69393886  0.15433719    -0.20700
C898        C  0.85449685  0.73385352  0.15490934    -0.19200
C899        C  0.86092639  0.75402669  0.13854787     0.20000
C900        C  0.86469833  0.73395086  0.12099102     0.02100
C901        C  0.87230242  0.75540879  0.10525275    -0.14000
C902        C  0.87528147  0.79531909  0.10669126    -0.11700
C903        C  0.87059414  0.81522473  0.12372427     0.01600
C904        C  0.86361292  0.79425956  0.13966349    -0.23900
H905        H  0.86336381  0.61480117  0.08995466     0.09600
H906        H  0.86660084  0.68430351  0.08921434     0.13200
H907        H  0.85032106  0.61781531  0.15058532     0.11900
H908        H  0.84755165  0.67900754  0.16737535     0.13100
H909        H  0.85165509  0.74896937  0.16834722     0.12100
H910        H  0.87622420  0.74213426  0.09169077     0.09200
H911        H  0.88073943  0.81082770  0.09417887     0.12500
H912        H  0.86018019  0.80933172  0.15299558     0.14400
C913        C  0.87696801  0.31719940  0.12767547    -0.01200
C914        C  0.87683882  0.29639871  0.14497317    -0.09200
C915        C  0.87467756  0.25625132  0.14489646    -0.18000
C916        C  0.87201461  0.23558795  0.12744142     0.04400
C917        C  0.87206811  0.25698605  0.10991926     0.18600
C918        C  0.87493816  0.29726817  0.11017317    -0.19400
C919        C  0.86875130  0.23820517  0.09229910    -0.20700
C920        C  0.86528588  0.19853088  0.09166522    -0.19200
C921        C  0.86543316  0.17648619  0.10859467     0.20000
C922        C  0.86902498  0.19466334  0.12672562     0.02100
C923        C  0.86972600  0.17094616  0.14329301    -0.14000
C924        C  0.86741678  0.13100817  0.14189289    -0.11700
C925        C  0.86391530  0.11325325  0.12404368     0.01600
C926        C  0.86253864  0.13617477  0.10746723    -0.23900
H927        H  0.87819942  0.31139442  0.15864306     0.09600
H928        H  0.87459565  0.24231496  0.15890120     0.13200
H929        H  0.87458352  0.31344357  0.09674801     0.11900
H930        H  0.86863893  0.25440476  0.07890650     0.13100
H931        H  0.86267753  0.18491307  0.07779250     0.12100
H932        H  0.87262113  0.18226366  0.15761210     0.09200
H933        H  0.86868843  0.11367282  0.15485250     0.12500
H934        H  0.86024305  0.12238839  0.09355826     0.14400
C935        C  0.94583922  0.49025907  0.12270145    -0.01200
C936        C  0.95312410  0.52572267  0.12959900    -0.09200
C937        C  0.97347203  0.53380958  0.12958740    -0.18000
C938        C  0.98742307  0.50641784  0.12276420     0.04400
C939        C  0.97997695  0.47067042  0.11551548     0.18600
C940        C  0.95940260  0.46300467  0.11548907    -0.19400
C941        C  0.99312441  0.44262812  0.10845786    -0.20700
C942        C  0.01353438  0.44917317  0.10850866    -0.19200
C943        C  0.02136070  0.48384071  0.11573481     0.20000
C944        C  0.00845786  0.51301690  0.12299663     0.02100
C945        C  0.01723734  0.54721800  0.13040288    -0.14000
C946        C  0.03790311  0.55194572  0.13078896    -0.11700
C947        C  0.05054967  0.52310642  0.12361242     0.01600
C948        C  0.04209058  0.48925193  0.11594148    -0.23900
H949        H  0.94301533  0.54757687  0.13503961     0.09600
H950        H  0.97778756  0.56177702  0.13507134     0.13200
H951        H  0.95397908  0.43550714  0.11006466     0.11900
H952        H  0.98758530  0.41533827  0.10290254     0.13100
H953        H  0.02329478  0.42677940  0.10298710     0.12100
H954        H  0.00856486  0.57074475  0.13620179     0.09200
H955        H  0.04400680  0.57843686  0.13669973     0.12500
H956        H  0.05169744  0.46657702  0.11042749     0.14400
C957        C  0.94554309  0.52808941  0.36657183    -0.01200
C958        C  0.95876965  0.55905282  0.36453910    -0.09200
C959        C  0.97927433  0.55252100  0.36368021    -0.18000
C960        C  0.98710673  0.51449409  0.36450077     0.04400
C961        C  0.97344485  0.48312731  0.36518268     0.18600
C962        C  0.95294340  0.49018836  0.36658383    -0.19400
C963        C  0.98032055  0.44490373  0.36467845    -0.20700
C964        C  0.00058260  0.43705780  0.36393347    -0.19200
C965        C  0.01447118  0.46720923  0.36436069     0.20000
C966        C  0.00794391  0.50640495  0.36483772     0.02100
C967        C  0.02253884  0.53569760  0.36640127    -0.14000
C968        C  0.04267879  0.52636009  0.36770532    -0.11700
C969        C  0.04900343  0.48777137  0.36697183     0.01600
C970        C  0.03487173  0.45833905  0.36491502    -0.23900
H971        H  0.95326876  0.58851500  0.36418786     0.09600
H972        H  0.98858736  0.57773374  0.36228458     0.13200
H973        H  0.94266078  0.46607441  0.36763209     0.11900
H974        H  0.96994784  0.42088325  0.36491209     0.13100
H975        H  0.00543087  0.40715167  0.36359463     0.12100
H976        H  0.01883967  0.56596976  0.36728413     0.09200
H977        H  0.05342585  0.54955331  0.36923524     0.12500
H978        H  0.03972400  0.42842030  0.36456383     0.14400
C979        C  0.87061516  0.48470828  0.20005766    -0.01200
C980        C  0.85825065  0.46251571  0.21201133    -0.09200
C981        C  0.85712642  0.46976592  0.23182417    -0.18000
C982        C  0.86843608  0.49967747  0.24045811     0.04400
C983        C  0.88129034  0.52159187  0.22835946     0.18600
C984        C  0.88220426  0.51408329  0.20842223    -0.19400
C985        C  0.89309290  0.55105516  0.23620027    -0.20700
C986        C  0.89235951  0.55941445  0.25582579    -0.19200
C987        C  0.87965688  0.53879835  0.26810295     0.20000
C988        C  0.86744569  0.50870245  0.26060491     0.02100
C989        C  0.85467922  0.48919387  0.27359463    -0.14000
C990        C  0.85416852  0.49899536  0.29314188    -0.11700
C991        C  0.86637670  0.52838063  0.30054623     0.01600
C992        C  0.87910138  0.54816770  0.28787018    -0.23900
H993        H  0.84914987  0.43961050  0.20600507     0.09600
H994        H  0.84723672  0.45146194  0.23994574     0.13200
H995        H  0.89191825  0.53138966  0.19938610     0.11900
H996        H  0.90297649  0.56779282  0.22707850     0.13100
H997        H  0.90171721  0.58237191  0.26142252     0.12100
H998        H  0.84485751  0.46627428  0.26913483     0.09200
H999        H  0.84427435  0.48298445  0.30255968     0.12500
H1000       H  0.88864259  0.57093070  0.29338040     0.14400
C1001       C  0.86773043  0.90101790  0.37010389    -0.01200
C1002       C  0.88148865  0.88206820  0.35810766    -0.09200
C1003       C  0.88269990  0.84193237  0.35758245    -0.18000
C1004       C  0.87013173  0.81891381  0.36913961     0.04400
C1005       C  0.85607744  0.83806056  0.38123664     0.18600
C1006       C  0.85492851  0.87874773  0.38155131    -0.19400
C1007       C  0.84344274  0.81647553  0.39313089    -0.20700
C1008       C  0.84466564  0.77632821  0.39350679    -0.19200
C1009       C  0.85844118  0.75676835  0.38187857     0.20000
C1010       C  0.87120670  0.77765273  0.36931091     0.02100
C1011       C  0.88450756  0.75627096  0.35752434    -0.14000
C1012       C  0.88528857  0.71593377  0.35846276    -0.11700
C1013       C  0.87298745  0.69562740  0.37120456     0.01600
C1014       C  0.85952062  0.71631208  0.38278640    -0.23900
H1015       H  0.89164416  0.89834034  0.34907054     0.09600
H1016       H  0.89383117  0.82994479  0.34812858     0.13200
H1017       H  0.84430337  0.89302708  0.39094006     0.11900
H1018       H  0.83267528  0.83075447  0.40235793     0.13100
H1019       H  0.83479500  0.76045232  0.40301942     0.12100
H1020       H  0.89446665  0.76973209  0.34736816     0.09200
H1021       H  0.89566782  0.70061807  0.34924259     0.12500
H1022       H  0.84965263  0.70086389  0.39248736     0.14400
C1023       C  0.87704060  0.19725616  0.36526622    -0.01200
C1024       C  0.86488166  0.21648651  0.35193962    -0.09200
C1025       C  0.86154101  0.25617859  0.35343900    -0.18000
C1026       C  0.87026072  0.27801975  0.36845620     0.04400
C1027       C  0.88340942  0.25869452  0.38131085     0.18600
C1028       C  0.88668345  0.21879592  0.37959258    -0.19400
C1029       C  0.89292058  0.27910284  0.39608544    -0.20700
C1030       C  0.88966656  0.31845872  0.39841060    -0.19200
C1031       C  0.87664552  0.33819466  0.38615830     0.20000
C1032       C  0.86650603  0.31828895  0.37115891     0.02100
C1033       C  0.85307798  0.33963082  0.35958446    -0.14000
C1034       C  0.85078022  0.37948527  0.36210619    -0.11700
C1035       C  0.86169448  0.39914895  0.37623456     0.01600
C1036       C  0.87410325  0.37805902  0.38857879    -0.23900
H1037       H  0.85732512  0.20060960  0.34062659     0.09600
H1038       H  0.85188961  0.26877364  0.34275360     0.13200
H1039       H  0.89622442  0.20429051  0.38991136     0.11900
H1040       H  0.90297932  0.26453764  0.40589650     0.13100
H1041       H  0.89740236  0.33358023  0.40988046     0.12100
H1042       H  0.84436395  0.32653321  0.34828932     0.09200
H1043       H  0.84104869  0.39516046  0.35242524     0.12500
H1044       H  0.88242045  0.39296052  0.39974579     0.14400
C1045       C  0.94961588  0.03091277  0.37548045    -0.01200
C1046       C  0.96225508  0.05557499  0.38582364    -0.09200
C1047       C  0.98256973  0.04726460  0.38753629    -0.18000
C1048       C  0.99092633  0.01368684  0.37898405     0.04400
C1049       C  0.97800920  0.98885288  0.36850853     0.18600
C1050       C  0.95770306  0.99759624  0.36687913    -0.19400
C1051       C  0.98540168  0.95540051  0.35961858    -0.20700
C1052       C  0.00550496  0.94631041  0.36058365    -0.19200
C1053       C  0.01871977  0.97023104  0.37062170     0.20000
C1054       C  0.01159120  0.00396057  0.38023420     0.02100
C1055       C  0.02549816  0.02647218  0.39059295    -0.14000
C1056       C  0.04561915  0.01655813  0.39092760    -0.11700
C1057       C  0.05271874  0.98400422  0.38091863     0.01600
C1058       C  0.03908266  0.96074435  0.37094391    -0.23900
H1059       H  0.95644448  0.08149987  0.39257918     0.09600
H1060       H  0.99135250  0.06781351  0.39557535     0.13200
H1061       H  0.94812013  0.97805266  0.35890353     0.11900
H1062       H  0.97557823  0.93627410  0.35168219     0.13100
H1063       H  0.01076773  0.92042621  0.35335057     0.12100
H1064       H  0.02132219  0.05206021  0.39854569     0.09200
H1065       H  0.05574698  0.03508462  0.39883109     0.12500
H1066       H  0.04432637  0.93531610  0.36329011     0.14400
C1067       C  0.87360899  0.03116327  0.29580182    -0.01200
C1068       C  0.89151569  0.02371021  0.28624835    -0.09200
C1069       C  0.89166521  0.01309132  0.26686659    -0.18000
C1070       C  0.87371138  0.00872242  0.25647038     0.04400
C1071       C  0.85551730  0.01601209  0.26632361     0.18600
C1072       C  0.85564552  0.02792382  0.28572128    -0.19400
C1073       C  0.83732962  0.01051922  0.25689049    -0.20700
C1074       C  0.83679977  0.99776305  0.23785077    -0.19200
C1075       C  0.85444942  0.99109869  0.22764138     0.20000
C1076       C  0.87317681  0.99696182  0.23674356     0.02100
C1077       C  0.89057788  0.99148431  0.22559321    -0.14000
C1078       C  0.88939615  0.98150417  0.20617362    -0.11700
C1079       C  0.87096780  0.97574029  0.19732720     0.01600
C1080       C  0.85352151  0.97972444  0.20817783    -0.23900
H1081       H  0.90553082  0.02585432  0.29388424     0.09600
H1082       H  0.90605807  0.00754656  0.26065061     0.13200
H1083       H  0.84172352  0.03298771  0.29323389     0.11900
H1084       H  0.82340815  0.01575645  0.26435270     0.13100
H1085       H  0.82248357  0.99360020  0.23097835     0.12100
H1086       H  0.90531819  0.99587639  0.23121290     0.09200
H1087       H  0.90301891  0.97883476  0.19789540     0.12500
H1088       H  0.83922030  0.97603803  0.20118710     0.14400
C1089       C  0.70174765  0.67607836  0.36899535    -0.01200
C1090       C  0.71498406  0.68917450  0.38316183    -0.09200
C1091       C  0.73328853  0.67079144  0.38597555    -0.18000
C1092       C  0.73892782  0.63836459  0.37469327     0.04400
C1093       C  0.72576737  0.62611336  0.35988616     0.18600
C1094       C  0.70748091  0.64489079  0.35719626    -0.19400
C1095       C  0.73082536  0.59494549  0.34791255    -0.20700
C1096       C  0.74892930  0.57605096  0.35006425    -0.19200
C1097       C  0.76227164  0.58737999  0.36447091     0.20000
C1098       C  0.75724323  0.61803501  0.37732612     0.02100
C1099       C  0.77082653  0.62707869  0.39218309    -0.14000
C1100       C  0.78919914  0.60852559  0.39330507    -0.11700
C1101       C  0.79471927  0.58025455  0.37974767     0.01600
C1102       C  0.78085948  0.56889204  0.36576307    -0.23900
H1103       H  0.71101072  0.71321665  0.39243844     0.09600
H1104       H  0.74266099  0.68261288  0.39711075     0.13200
H1105       H  0.69745613  0.63441212  0.34611696     0.11900
H1106       H  0.72080119  0.58539991  0.33663309     0.13100
H1107       H  0.75255805  0.55251881  0.34032039     0.12100
H1108       H  0.76781685  0.64869737  0.40300859     0.09200
H1109       H  0.79942146  0.61746721  0.40453229     0.12500
H1110       H  0.78482466  0.54675242  0.35534859     0.14400
C1111       C  0.62462729  0.06589238  0.37439242    -0.01200
C1112       C  0.61516533  0.04632288  0.35930588    -0.09200
C1113       C  0.61733494  0.00635679  0.35720961    -0.18000
C1114       C  0.62923261  0.98467182  0.37014540     0.04400
C1115       C  0.63825123  0.00454423  0.38578516     0.18600
C1116       C  0.63586605  0.04459494  0.38776068    -0.19400
C1117       C  0.64975544  0.98444099  0.39929854    -0.20700
C1118       C  0.65238366  0.94468576  0.39772169    -0.19200
C1119       C  0.64377151  0.92417583  0.38246294     0.20000
C1120       C  0.63235200  0.94401003  0.36826955     0.02100
C1121       C  0.62450053  0.92222648  0.35283910    -0.14000
C1122       C  0.62677089  0.88227129  0.35219619    -0.11700
C1123       C  0.63701665  0.86250768  0.36679223     0.01600
C1124       C  0.64606795  0.88376098  0.38156876    -0.23900
H1125       H  0.60630073  0.06201339  0.34888357     0.09600
H1126       H  0.60952094  0.99335837  0.34525973     0.13200
H1127       H  0.64318903  0.05930666  0.39962697     0.11900
H1128       H  0.65666885  0.99955015  0.41125965     0.13100
H1129       H  0.66115620  0.92986507  0.40854783     0.12100
H1130       H  0.61628041  0.93507627  0.34112352     0.09200
H1131       H  0.61992213  0.86659358  0.34039572     0.12500
H1132       H  0.65408370  0.86871911  0.39287617     0.14400
C1133       C  0.63405292  0.36307597  0.38222224    -0.01200
C1134       C  0.62007280  0.38257688  0.39371620    -0.09200
C1135       C  0.61773347  0.42253379  0.39247304    -0.18000
C1136       C  0.62930463  0.44462706  0.37952197     0.04400
C1137       C  0.64409384  0.42503775  0.36849692     0.18600
C1138       C  0.64638733  0.38468576  0.36998904    -0.19400
C1139       C  0.65619654  0.44570995  0.35570799    -0.20700
C1140       C  0.65372763  0.48535433  0.35337678    -0.19200
C1141       C  0.63903960  0.50527729  0.36371842     0.20000
C1142       C  0.62662350  0.48531781  0.37699164     0.02100
C1143       C  0.61198655  0.50696299  0.38701202    -0.14000
C1144       C  0.61008321  0.54681922  0.38423759    -0.11700
C1145       C  0.62250270  0.56636018  0.37128772     0.01600
C1146       C  0.63681876  0.54522659  0.36093906    -0.23900
H1147       H  0.61046040  0.36676068  0.40348416     0.09600
H1148       H  0.60652556  0.43508956  0.40166013     0.13200
H1149       H  0.65729098  0.36997730  0.36107615     0.11900
H1150       H  0.66755429  0.43106424  0.34732905     0.13100
H1151       H  0.66330610  0.50051456  0.34330739     0.12100
H1152       H  0.60183064  0.49407573  0.39717433     0.09200
H1153       H  0.59893509  0.56244687  0.39242089     0.12500
H1154       H  0.64666692  0.56004261  0.35097620     0.14400
C1155       C  0.79755614  0.08325666  0.37138648    -0.01200
C1156       C  0.78531539  0.07423894  0.38711753    -0.09200
C1157       C  0.76685990  0.09247871  0.38952013    -0.18000
C1158       C  0.76002744  0.12062972  0.37619608     0.04400
C1159       C  0.77215070  0.12852123  0.35987895     0.18600
C1160       C  0.79059541  0.10993269  0.35763433    -0.19400
C1161       C  0.76595927  0.15537826  0.34599523    -0.20700
C1162       C  0.74788282  0.17460826  0.34791195    -0.19200
C1163       C  0.73559970  0.16784218  0.36387715     0.20000
C1164       C  0.74161924  0.14109424  0.37837756     0.02100
C1165       C  0.72893210  0.13602940  0.39442654    -0.14000
C1166       C  0.71066405  0.15506731  0.39553308    -0.11700
C1167       C  0.70428845  0.18006174  0.38081955     0.01600
C1168       C  0.71712466  0.18707197  0.36522889    -0.23900
H1169       H  0.79025386  0.05382997  0.39795533     0.09600
H1170       H  0.75838976  0.08415295  0.40203326     0.13200
H1171       H  0.79979700  0.11709884  0.34528429     0.11900
H1172       H  0.77515397  0.16149612  0.33350505     0.13100
H1173       H  0.74347829  0.19493458  0.33680844     0.12100
H1174       H  0.73256959  0.11721619  0.40627429     0.09200
H1175       H  0.70121269  0.14932016  0.40787809     0.12500
H1176       H  0.71240635  0.20624201  0.35373732     0.14400
C1177       C  0.70223649  0.83306589  0.12470226    -0.01200
C1178       C  0.71029722  0.84680934  0.14202223    -0.09200
C1179       C  0.72792047  0.86812613  0.14219372    -0.18000
C1180       C  0.73803408  0.87712916  0.12485349     0.04400
C1181       C  0.73011804  0.86228987  0.10730932     0.18600
C1182       C  0.71246689  0.84019546  0.10739580    -0.19400
C1183       C  0.73969732  0.87015208  0.08977649    -0.20700
C1184       C  0.75712598  0.89198444  0.08929914    -0.19200
C1185       C  0.76539790  0.90673212  0.10633190     0.20000
C1186       C  0.75578916  0.89998093  0.12433614     0.02100
C1187       C  0.76457219  0.91587858  0.14110320    -0.14000
C1188       C  0.78284404  0.93488994  0.14021355    -0.11700
C1189       C  0.79276853  0.93972734  0.12263270     0.01600
C1190       C  0.78364212  0.92689641  0.10560345    -0.23900
H1191       H  0.70269150  0.84163562  0.15557551     0.09600
H1192       H  0.73304757  0.87750193  0.15613158     0.13200
H1193       H  0.70620636  0.83008045  0.09388938     0.11900
H1194       H  0.73372940  0.85912890  0.07632806     0.13100
H1195       H  0.76430119  0.89703543  0.07551357     0.12100
H1196       H  0.75805341  0.91315219  0.15521840     0.09200
H1197       H  0.78966568  0.94466749  0.15351920     0.12500
H1198       H  0.79140257  0.93016301  0.09197291     0.14400
C1199       C  0.62485818  0.76561183  0.19434489    -0.01200
C1200       C  0.64008315  0.74279855  0.20183048    -0.09200
C1201       C  0.64018443  0.73282489  0.22127755    -0.18000
C1202       C  0.62493614  0.74575695  0.23380134     0.04400
C1203       C  0.60973069  0.76980755  0.22603759     0.18600
C1204       C  0.60970963  0.77914334  0.20635040    -0.19400
C1205       C  0.59476408  0.78459059  0.23797993    -0.20700
C1206       C  0.59469816  0.77641604  0.25759502    -0.19200
C1207       C  0.60935969  0.75262623  0.26561218     0.20000
C1208       C  0.62444804  0.73625601  0.25378822     0.02100
C1209       C  0.63841380  0.71113137  0.26250497    -0.14000
C1210       C  0.63796661  0.70413577  0.28230212    -0.11700
C1211       C  0.62367386  0.72189439  0.29399414     0.01600
C1212       C  0.60917201  0.74550493  0.28549222    -0.23900
H1213       H  0.65191708  0.73244059  0.19252605     0.09600
H1214       H  0.65248444  0.71545035  0.22603739     0.13200
H1215       H  0.59802344  0.79709525  0.20035928     0.11900
H1216       H  0.58318969  0.80300306  0.23215826     0.13100
H1217       H  0.58309906  0.78878455  0.26655927     0.12100
H1218       H  0.64987845  0.69652768  0.25450219     0.09200
H1219       H  0.64921944  0.68553292  0.28853152     0.12500
H1220       H  0.59783267  0.75889424  0.29441255     0.14400
C1221       C  0.62411519  0.44083999  0.12943290    -0.01200
C1222       C  0.61291349  0.46022288  0.11541464    -0.09200
C1223       C  0.61555526  0.49978513  0.11211620    -0.18000
C1224       C  0.62965539  0.52149254  0.12274623     0.04400
C1225       C  0.64053700  0.50201970  0.13738228     0.18600
C1226       C  0.63768656  0.46221549  0.14058105    -0.19400
C1227       C  0.65434279  0.52229573  0.14864533    -0.20700
C1228       C  0.65741044  0.56172272  0.14587845    -0.19200
C1229       C  0.64694210  0.58180876  0.13160960     0.20000
C1230       C  0.63315930  0.56185154  0.11958607     0.02100
C1231       C  0.62326347  0.58337405  0.10513907    -0.14000
C1232       C  0.62591758  0.62332244  0.10361409    -0.11700
C1233       C  0.63878513  0.64296188  0.11605429     0.01600
C1234       C  0.64962846  0.62205373  0.12973544    -0.23900
H1235       H  0.60230365  0.44458618  0.10660821     0.09600
H1236       H  0.60638526  0.51244052  0.10106192     0.13200
H1237       H  0.64649078  0.44767958  0.15148557     0.11900
H1238       H  0.66271105  0.50761357  0.15981276     0.13100
H1239       H  0.66796406  0.57667224  0.15505807     0.12100
H1240       H  0.61297639  0.57042164  0.09512490     0.09200
H1241       H  0.61720547  0.63930026  0.09316146     0.12500
H1242       H  0.65929239  0.63746513  0.13963888     0.14400
C1243       C  0.62218299  0.93930152  0.12685020    -0.01200
C1244       C  0.62512428  0.95822773  0.14447739    -0.09200
C1245       C  0.62775180  0.99820722  0.14521487    -0.18000
C1246       C  0.62785636  0.02073676  0.12817631     0.04400
C1247       C  0.62461096  0.00146928  0.11031197     0.18600
C1248       C  0.62155088  0.96120923  0.10983333    -0.19400
C1249       C  0.62487401  0.02236819  0.09300741    -0.20700
C1250       C  0.62838362  0.06207492  0.09302853    -0.19200
C1251       C  0.63152940  0.08196564  0.11037368     0.20000
C1252       C  0.63119988  0.06157078  0.12822129     0.02100
C1253       C  0.63397947  0.08305308  0.14537934    -0.14000
C1254       C  0.63628505  0.12307358  0.14488076    -0.11700
C1255       C  0.63640281  0.14303046  0.12735457     0.01600
C1256       C  0.63443757  0.12234939  0.11007272    -0.23900
H1257       H  0.62570619  0.94191175  0.15781067     0.09600
H1258       H  0.63008706  0.01037194  0.15935054     0.13200
H1259       H  0.61955489  0.94669488  0.09608462     0.11900
H1260       H  0.62246755  0.00785129  0.07933203     0.13100
H1261       H  0.62849193  0.07738909  0.07938477     0.12100
H1262       H  0.63389506  0.07005779  0.15950130     0.09200
H1263       H  0.63754660  0.13876812  0.15837485     0.12500
H1264       H  0.63405218  0.13794979  0.09650083     0.14400
C1265       C  0.70312302  0.32435968  0.12943782    -0.01200
C1266       C  0.71340234  0.32588705  0.11185869    -0.09200
C1267       C  0.73174237  0.34495700  0.11049224    -0.18000
C1268       C  0.74047095  0.36279709  0.12683171     0.04400
C1269       C  0.73053456  0.35887950  0.14484908     0.18600
C1270       C  0.71200032  0.34031210  0.14592634    -0.19400
C1271       C  0.73900408  0.37396082  0.16169012    -0.20700
C1272       C  0.75727539  0.39269373  0.16108745    -0.19200
C1273       C  0.76719187  0.39803342  0.14353126     0.20000
C1274       C  0.75872114  0.38410218  0.12604784     0.02100
C1275       C  0.76878366  0.39261364  0.10859347    -0.14000
C1276       C  0.78689534  0.41264973  0.10865048    -0.11700
C1277       C  0.79567682  0.42414790  0.12604703     0.01600
C1278       C  0.78564444  0.41706779  0.14340245    -0.23900
H1279       H  0.70684082  0.31378873  0.09891771     0.09600
H1280       H  0.73871783  0.34536036  0.09648152     0.13200
H1281       H  0.70425204  0.33888310  0.15964806     0.11900
H1282       H  0.73152886  0.37091436  0.17547486     0.13100
H1283       H  0.76358489  0.40350724  0.17443320     0.12100
H1284       H  0.76298759  0.38427408  0.09470335     0.09200
H1285       H  0.79447420  0.41774836  0.09507944     0.12500
H1286       H  0.79232663  0.42624572  0.15689409     0.14400
C1287       C  0.62808628  0.27757591  0.20504286    -0.01200
C1288       C  0.64372769  0.29253482  0.21610231    -0.09200
C1289       C  0.64506821  0.28454753  0.23583053    -0.18000
C1290       C  0.63060702  0.26141626  0.24521549     0.04400
C1291       C  0.61446285  0.24728003  0.23400351     0.18600
C1292       C  0.61343607  0.25518622  0.21416408    -0.19400
C1293       C  0.59944957  0.22513761  0.24261041    -0.20700
C1294       C  0.60010723  0.21656672  0.26217985    -0.19200
C1295       C  0.61591014  0.22954988  0.27359673     0.20000
C1296       C  0.63148422  0.25193433  0.26528497     0.02100
C1297       C  0.64724722  0.26371599  0.27743741    -0.14000
C1298       C  0.64724480  0.25452056  0.29705078    -0.11700
C1299       C  0.63164592  0.23316452  0.30526850     0.01600
C1300       C  0.61612749  0.22042923  0.29335136    -0.23900
H1301       H  0.65527260  0.30980623  0.20939432     0.09600
H1302       H  0.65759577  0.29687833  0.24329595     0.13200
H1303       H  0.60117178  0.24370715  0.20576993     0.11900
H1304       H  0.58706312  0.21443117  0.23414666     0.13100
H1305       H  0.58818848  0.19952171  0.26841774     0.12100
H1306       H  0.65978739  0.28009791  0.27226258     0.09200
H1307       H  0.65952616  0.26451481  0.30585144     0.12500
H1308       H  0.60398536  0.20383746  0.29949730     0.14400
C1309       C  0.29483217  0.82112987  0.37188247    -0.01200
C1310       C  0.28741525  0.83680788  0.35469899    -0.09200
C1311       C  0.26966967  0.85826415  0.35465014    -0.18000
C1312       C  0.25873039  0.86434808  0.37188810     0.04400
C1313       C  0.26578222  0.84604506  0.38895899     0.18600
C1314       C  0.28370876  0.82522366  0.38883089    -0.19400
C1315       C  0.25521458  0.84944218  0.40626304    -0.20700
C1316       C  0.23782099  0.87095382  0.40711600    -0.19200
C1317       C  0.23075080  0.89031814  0.39078768     0.20000
C1318       C  0.24114015  0.88783755  0.37294940     0.02100
C1319       C  0.23347012  0.90921422  0.35714755    -0.14000
C1320       C  0.21569707  0.93044346  0.35882389    -0.11700
C1321       C  0.20504739  0.93094382  0.37623116     0.01600
C1322       C  0.21304272  0.91155478  0.39222068    -0.23900
H1323       H  0.29595540  0.83439740  0.34148218     0.09600
H1324       H  0.26503464  0.87027179  0.34102775     0.13200
H1325       H  0.28944514  0.81321098  0.40216835     0.11900
H1326       H  0.26044554  0.83533179  0.41926464     0.13100
H1327       H  0.22990724  0.87270807  0.42072974     0.12100
H1328       H  0.24075433  0.90960628  0.34328007     0.09200
H1329       H  0.20978940  0.94490779  0.34621313     0.12500
H1330       H  0.20502839  0.91191781  0.40582036     0.14400
C1331       C  0.44699069  0.77678868  0.37273286    -0.01200
C1332       C  0.45940955  0.80191812  0.36245204    -0.09200
C1333       C  0.47994530  0.79574455  0.36179231    -0.18000
C1334       C  0.48873586  0.76381802  0.37136522     0.04400
C1335       C  0.47604505  0.73850132  0.38181610     0.18600
C1336       C  0.45549323  0.74523767  0.38246074    -0.19400
C1337       C  0.48388124  0.70638769  0.39148223    -0.20700
C1338       C  0.50415745  0.69872504  0.39098136    -0.19200
C1339       C  0.51710107  0.72298924  0.38080773     0.20000
C1340       C  0.50959468  0.75593496  0.37086997     0.02100
C1341       C  0.52329803  0.77946909  0.36081452    -0.14000
C1342       C  0.54350528  0.77056798  0.36058393    -0.11700
C1343       C  0.55087309  0.73807064  0.37036022     0.01600
C1344       C  0.53754467  0.71442526  0.38049828    -0.23900
H1345       H  0.45324940  0.82650725  0.35483540     0.09600
H1346       H  0.48844091  0.81632848  0.35360188     0.13200
H1347       H  0.44605868  0.72539576  0.39040713     0.11900
H1348       H  0.47424285  0.68697042  0.39945595     0.13100
H1349       H  0.50974707  0.67358832  0.39858347     0.12100
H1350       H  0.51894615  0.80490871  0.35299017     0.09200
H1351       H  0.55343040  0.78956032  0.35269735     0.12500
H1352       H  0.54305396  0.68927052  0.38814103     0.14400
C1353       C  0.37699123  0.43751818  0.37132215    -0.01200
C1354       C  0.38736734  0.45739934  0.38577461    -0.09200
C1355       C  0.38577207  0.49757126  0.38754046    -0.18000
C1356       C  0.37352324  0.51921778  0.37491497     0.04400
C1357       C  0.36347484  0.49896198  0.35997641     0.18600
C1358       C  0.36536423  0.45871511  0.35827306    -0.19400
C1359       C  0.35129270  0.51883395  0.34696886    -0.20700
C1360       C  0.34876870  0.55860075  0.34848653    -0.19200
C1361       C  0.35830525  0.57946349  0.36309221     0.20000
C1362       C  0.37079539  0.56010186  0.37656464     0.02100
C1363       C  0.37998231  0.58255649  0.39107837    -0.14000
C1364       C  0.37736765  0.62254114  0.39178474    -0.11700
C1365       C  0.36543615  0.64162775  0.37819692     0.01600
C1366       C  0.35566071  0.61976059  0.36408589    -0.23900
H1367       H  0.39646253  0.44179012  0.39604511     0.09600
H1368       H  0.39411642  0.51068603  0.39908091     0.13200
H1369       H  0.35722177  0.44375615  0.34701313     0.11900
H1370       H  0.34360492  0.50347923  0.33554820     0.13100
H1371       H  0.33927489  0.57314210  0.33815418     0.12100
H1372       H  0.38946690  0.57023626  0.40197088     0.09200
H1373       H  0.38509038  0.63871449  0.40289166     0.12500
H1374       H  0.34654993  0.63425466  0.35340780     0.14400
C1375       C  0.35939069  0.14269648  0.37032069    -0.01200
C1376       C  0.36663524  0.12399298  0.35379574    -0.09200
C1377       C  0.36861400  0.08396422  0.35321552    -0.18000
C1378       C  0.36361331  0.06113258  0.36937260     0.04400
C1379       C  0.35500357  0.07996548  0.38566682     0.18600
C1380       C  0.35289611  0.12048619  0.38598106    -0.19400
C1381       C  0.34906678  0.05831807  0.40171835    -0.20700
C1382       C  0.35165182  0.01840486  0.40200840    -0.19200
C1383       C  0.36060402  0.99929936  0.38641687     0.20000
C1384       C  0.36694806  0.02037788  0.36995726     0.02100
C1385       C  0.37668534  0.99981898  0.35497027    -0.14000
C1386       C  0.37927106  0.95977392  0.35598304    -0.11700
C1387       C  0.37225775  0.93895853  0.37188969     0.01600
C1388       C  0.36320385  0.95909847  0.38718605    -0.23900
H1389       H  0.37132837  0.14059706  0.34133126     0.09600
H1390       H  0.37432926  0.07189188  0.33999216     0.13200
H1391       H  0.34718441  0.13481877  0.39876766     0.11900
H1392       H  0.34242467  0.07235362  0.41414982     0.13100
H1393       H  0.34682195  0.00240793  0.41462334     0.12100
H1394       H  0.38254721  0.01379274  0.34229657     0.09200
H1395       H  0.38642387  0.94498718  0.34405861     0.12500
H1396       H  0.35793347  0.94340041  0.39973730     0.14400
C1397       C  0.29426301  0.32756495  0.37081119    -0.01200
C1398       C  0.28024961  0.31345808  0.38403437    -0.09200
C1399       C  0.26114694  0.32959221  0.38518854    -0.18000
C1400       C  0.25538461  0.36080412  0.37314956     0.04400
C1401       C  0.26943880  0.37430314  0.35939513     0.18600
C1402       C  0.28851756  0.35766706  0.35831727    -0.19400
C1403       C  0.26450454  0.40477506  0.34695746    -0.20700
C1404       C  0.24592466  0.42243412  0.34796125    -0.19200
C1405       C  0.23177046  0.41025029  0.36148643     0.20000
C1406       C  0.23630036  0.37926997  0.37429919     0.02100
C1407       C  0.22156209  0.36834638  0.38778252    -0.14000
C1408       C  0.20310756  0.38688279  0.38832474    -0.11700
C1409       C  0.19849360  0.41705168  0.37551410     0.01600
C1410       C  0.21305492  0.42874865  0.36219136    -0.23900
H1411       H  0.28415004  0.29022450  0.39380135     0.09600
H1412       H  0.25131498  0.31722140  0.39579011     0.13200
H1413       H  0.29909221  0.36893315  0.34791839     0.11900
H1414       H  0.27514605  0.41516976  0.33640180     0.13100
H1415       H  0.24263646  0.44593985  0.33812088     0.12100
H1416       H  0.22378743  0.34547859  0.39809216     0.09200
H1417       H  0.19226145  0.37701669  0.39879567     0.12500
H1418       H  0.20974000  0.45187603  0.35213582     0.14400
C1419       C  0.55107507  0.22783758  0.37726702    -0.01200
C1420       C  0.53935134  0.20901486  0.36342837    -0.09200
C1421       C  0.51878802  0.21521735  0.36257826    -0.18000
C1422       C  0.50914658  0.24069097  0.37561481     0.04400
C1423       C  0.52097377  0.25869387  0.39004109     0.18600
C1424       C  0.54163117  0.25222741  0.39071360    -0.19400
C1425       C  0.51216084  0.28341325  0.40361690    -0.20700
C1426       C  0.49184881  0.29108495  0.40305822    -0.19200
C1427       C  0.47980049  0.27452248  0.38880839     0.20000
C1428       C  0.48827524  0.24909353  0.37485578     0.02100
C1429       C  0.47550494  0.23357241  0.36063848    -0.14000
C1430       C  0.45523908  0.24242124  0.36045322    -0.11700
C1431       C  0.44682798  0.26714379  0.37433420     0.01600
C1432       C  0.45930689  0.28328951  0.38842997    -0.23900
H1433       H  0.54612949  0.18975297  0.35298323     0.09600
H1434       H  0.51087080  0.19972891  0.35147383     0.13200
H1435       H  0.55041515  0.26671635  0.40167037     0.11900
H1436       H  0.52107112  0.29706567  0.41473299     0.13100
H1437       H  0.48554242  0.31039473  0.41377847     0.12100
H1438       H  0.48072026  0.21455799  0.34937702     0.09200
H1439       H  0.44608323  0.22968469  0.34927094     0.12500
H1440       H  0.45304861  0.30243676  0.39925712     0.14400
C1441       C  0.20321561  0.57351569  0.12726047    -0.01200
C1442       C  0.21509219  0.56742265  0.14357748    -0.09200
C1443       C  0.23362583  0.58576580  0.14538296    -0.18000
C1444       C  0.24091511  0.61087033  0.13080491     0.04400
C1445       C  0.22900908  0.61599744  0.11408461     0.18600
C1446       C  0.21050075  0.59748989  0.11249301    -0.19400
C1447       C  0.23552043  0.63985796  0.09902997    -0.20700
C1448       C  0.25379805  0.65850779  0.10005804    -0.19200
C1449       C  0.26599688  0.65405240  0.11623606     0.20000
C1450       C  0.25962612  0.63067790  0.13200258     0.02100
C1451       C  0.27239461  0.62789942  0.14812583    -0.14000
C1452       C  0.29113183  0.64550260  0.14805514    -0.11700
C1453       C  0.29777633  0.66688205  0.13206938     0.01600
C1454       C  0.28480508  0.67200844  0.11645936    -0.23900
H1455       H  0.20979886  0.54932146  0.15526094     0.09600
H1456       H  0.24184728  0.57990325  0.15839776     0.13200
H1457       H  0.20154252  0.60239040  0.09972385     0.11900
H1458       H  0.22645997  0.64390891  0.08626429     0.13100
H1459       H  0.25849493  0.67633948  0.08802129     0.12100
H1460       H  0.26847870  0.61173249  0.16087491     0.09200
H1461       H  0.30069567  0.64147221  0.16045777     0.12500
H1462       H  0.28969897  0.68852265  0.10402586     0.14400
C1463       C  0.44865473  0.72611323  0.12001025    -0.01200
C1464       C  0.45480085  0.76446526  0.12294062    -0.09200
C1465       C  0.47479417  0.77485231  0.12153204    -0.18000
C1466       C  0.48952480  0.74689546  0.11744319     0.04400
C1467       C  0.48327877  0.70784145  0.11478242     0.18600
C1468       C  0.46296852  0.69796986  0.11568988    -0.19400
C1469       C  0.49738288  0.67875328  0.11162299    -0.20700
C1470       C  0.51758368  0.68740519  0.11151346    -0.19200
C1471       C  0.52417051  0.72554074  0.11398138     0.20000
C1472       C  0.51024943  0.75608111  0.11640771     0.02100
C1473       C  0.51773724  0.79437778  0.11772052    -0.14000
C1474       C  0.53821674  0.80171547  0.11736100    -0.11700
C1475       C  0.55180552  0.77120661  0.11603979     0.01600
C1476       C  0.54466846  0.73326022  0.11417309    -0.23900
H1477       H  0.44402064  0.78682002  0.12625232     0.09600
H1478       H  0.47827618  0.80482970  0.12415044     0.13200
H1479       H  0.45836347  0.66817710  0.11360373     0.11900
H1480       H  0.49278290  0.64894890  0.10962500     0.13100
H1481       H  0.52814582  0.66406863  0.10945197     0.12100
H1482       H  0.50816535  0.81925353  0.11893782     0.09200
H1483       H  0.54346185  0.83125098  0.11870389     0.12500
H1484       H  0.55517151  0.70959172  0.11279875     0.14400
C1485       C  0.37861617  0.71503416  0.20115201    -0.01200
C1486       C  0.36840836  0.69050164  0.21383541    -0.09200
C1487       C  0.36781662  0.69832293  0.23361646    -0.18000
C1488       C  0.37735589  0.73134010  0.24144974     0.04400
C1489       C  0.38828763  0.75539829  0.22864092     0.18600
C1490       C  0.38887394  0.74703060  0.20878632    -0.19400
C1491       C  0.39821701  0.78817456  0.23564716    -0.20700
C1492       C  0.39719112  0.79810576  0.25509172    -0.19200
C1493       C  0.38612813  0.77563082  0.26803225     0.20000
C1494       C  0.37615657  0.74175927  0.26140936     0.02100
C1495       C  0.36509577  0.72021378  0.27499826    -0.14000
C1496       C  0.36371284  0.73203370  0.29417742    -0.11700
C1497       C  0.37339751  0.76554743  0.30070084     0.01600
C1498       C  0.38478948  0.78703526  0.28753524    -0.23900
H1499       H  0.36047872  0.66546443  0.20841562     0.09600
H1500       H  0.35949764  0.67815425  0.24234180     0.13200
H1501       H  0.39695612  0.76620504  0.19918428     0.11900
H1502       H  0.40666682  0.80654500  0.22596497     0.13100
H1503       H  0.40489901  0.82386133  0.25999481     0.12100
H1504       H  0.35715665  0.69412564  0.27126963     0.09200
H1505       H  0.35504292  0.71444900  0.30401656     0.12500
H1506       H  0.39244901  0.81289616  0.29240120     0.14400
C1507       C  0.37753710  0.05169488  0.12526484    -0.01200
C1508       C  0.37907669  0.03247153  0.10751251    -0.09200
C1509       C  0.37641312  0.99239874  0.10634880    -0.18000
C1510       C  0.37236374  0.97025274  0.12306409     0.04400
C1511       C  0.37205699  0.98978471  0.14114846     0.18600
C1512       C  0.37432166  0.03007171  0.14203790    -0.19400
C1513       C  0.36933355  0.96908561  0.15827632    -0.20700
C1514       C  0.36697602  0.92920163  0.15789033    -0.19200
C1515       C  0.36660742  0.90924900  0.14032555     0.20000
C1516       C  0.36881006  0.92947303  0.12258828     0.02100
C1517       C  0.36718626  0.90794936  0.10523820    -0.14000
C1518       C  0.36440424  0.86779050  0.10560263    -0.11700
C1519       C  0.36343029  0.84807149  0.12318574     0.01600
C1520       C  0.36430705  0.86896918  0.14044784    -0.23900
H1521       H  0.38162381  0.04865345  0.09435349     0.09600
H1522       H  0.37763604  0.97956045  0.09220958     0.13200
H1523       H  0.37341864  0.04474046  0.15585963     0.11900
H1524       H  0.36922434  0.98380678  0.17209742     0.13100
H1525       H  0.36521537  0.91388564  0.17143073     0.12100
H1526       H  0.36805867  0.92132251  0.09121113     0.09200
H1527       H  0.36397451  0.85188317  0.09212646     0.12500
H1528       H  0.36355478  0.85357622  0.15407296     0.14400
C1529       C  0.37788164  0.55149339  0.12470195    -0.01200
C1530       C  0.37429991  0.53350628  0.10691374    -0.09200
C1531       C  0.37087018  0.49360079  0.10586386    -0.18000
C1532       C  0.37132263  0.47036620  0.12265670     0.04400
C1533       C  0.37626188  0.48864962  0.14044568     0.18600
C1534       C  0.37903516  0.52885642  0.14136254    -0.19400
C1535       C  0.37829300  0.46677799  0.15728317    -0.20700
C1536       C  0.37551170  0.42700686  0.15689835    -0.19200
C1537       C  0.36995706  0.40833482  0.13981395     0.20000
C1538       C  0.36732657  0.42967982  0.12249329     0.02100
C1539       C  0.36069059  0.40929440  0.10592237    -0.14000
C1540       C  0.35785738  0.36906038  0.10637414    -0.11700
C1541       C  0.36171845  0.34815967  0.12324655     0.01600
C1542       C  0.36733052  0.36816987  0.13996111    -0.23900
H1543       H  0.37334647  0.55062796  0.09385633     0.09600
H1544       H  0.36797093  0.48170946  0.09175039     0.13200
H1545       H  0.38204043  0.54268755  0.15511638     0.11900
H1546       H  0.38226172  0.48048311  0.17082088     0.13100
H1547       H  0.37751726  0.41076681  0.17012962     0.12100
H1548       H  0.35768236  0.42365662  0.09243031     0.09200
H1549       H  0.35356389  0.35407988  0.09328379     0.12500
H1550       H  0.37013867  0.35212458  0.15313314     0.14400
C1551       C  0.29597666  0.16348283  0.12743949    -0.01200
C1552       C  0.28738885  0.15465149  0.14533211    -0.09200
C1553       C  0.26875772  0.13692173  0.14657054    -0.18000
C1554       C  0.25805996  0.12644998  0.12979308     0.04400
C1555       C  0.26668533  0.13567649  0.11159391     0.18600
C1556       C  0.28533777  0.15457252  0.11056929    -0.19400
C1557       C  0.25684250  0.12513250  0.09456022    -0.20700
C1558       C  0.23870078  0.10554105  0.09518643    -0.19200
C1559       C  0.22974039  0.09628418  0.11286351     0.20000
C1560       C  0.23925061  0.10684299  0.13043730     0.02100
C1561       C  0.22940544  0.09763695  0.14790286    -0.14000
C1562       C  0.21074956  0.07984128  0.14790026    -0.11700
C1563       C  0.20130278  0.06974803  0.13061215     0.01600
C1564       C  0.21108386  0.07738036  0.11309664    -0.23900
H1565       H  0.29532368  0.16103735  0.15856074     0.09600
H1566       H  0.26339555  0.13100365  0.16090698     0.13200
H1567       H  0.29200360  0.16063212  0.09664040     0.11900
H1568       H  0.26329872  0.13184601  0.08062055     0.13100
H1569       H  0.23155028  0.09780594  0.08171288     0.12100
H1570       H  0.23546343  0.10463702  0.16184291     0.09200
H1571       H  0.20346550  0.07450917  0.16160375     0.12500
H1572       H  0.20372675  0.07038085  0.09962040     0.14400
C1573       C  0.44837991  0.22168891  0.12340558    -0.01200
C1574       C  0.46181376  0.19192624  0.12745978    -0.09200
C1575       C  0.48223775  0.19947904  0.12860788    -0.18000
C1576       C  0.48989241  0.23712653  0.12526273     0.04400
C1577       C  0.47618608  0.26676331  0.12026374     0.18600
C1578       C  0.45565855  0.25902366  0.11982272    -0.19400
C1579       C  0.48303884  0.30392975  0.11569152    -0.20700
C1580       C  0.50327216  0.31240090  0.11596746    -0.19200
C1581       C  0.51713636  0.28428577  0.12143160     0.20000
C1582       C  0.51060541  0.24641371  0.12650232     0.02100
C1583       C  0.52506300  0.21970952  0.13288031    -0.14000
C1584       C  0.54511399  0.22993608  0.13385519    -0.11700
C1585       C  0.55161239  0.26689515  0.12830541    -0.01600
C1586       C  0.53749633  0.29393777  0.12203870    -0.23900
H1587       H  0.45643584  0.16290509  0.13026163     0.09600
H1588       H  0.49167289  0.17515343  0.13191647     0.13200
H1589       H  0.44526767  0.28204847  0.11644602     0.11900
H1590       H  0.47267407  0.32655299  0.11169467     0.13100
H1591       H  0.50808381  0.34135117  0.11215346     0.12100
H1592       H  0.52131374  0.19082540  0.13751049     0.09200
H1593       H  0.55565749  0.20842473  0.13879451     0.12500
H1594       H  0.54231139  0.32273652  0.11792243     0.14400
C1595       C  0.37061333  0.27417002  0.29751707    -0.01200
C1596       C  0.35312773  0.26090689  0.28887157    -0.09200
C1597       C  0.35319298  0.24833758  0.26971019    -0.18000
C1598       C  0.37081344  0.24945944  0.25852916     0.04400
C1599       C  0.38823696  0.26513901  0.26715760     0.18600
C1600       C  0.38811461  0.27630797  0.28664554    -0.19400
C1601       C  0.40564272  0.26959655  0.25628460    -0.20700
C1602       C  0.40602924  0.25940832  0.23687445    -0.19200
C1603       C  0.38929764  0.24290761  0.22811927     0.20000
C1604       C  0.37167568  0.23638416  0.23900099     0.02100
C1605       C  0.35576525  0.21678470  0.22989433    -0.14000
C1606       C  0.35688852  0.20628042  0.21046307    -0.11700
C1607       C  0.37372201  0.21541551  0.19947450     0.01600
C1608       C  0.39001471  0.23313729  0.20847085    -0.23900
H1609       H  0.33951706  0.25891241  0.29720591     0.09600
H1610       H  0.33920112  0.23833892  0.26398111     0.13200
H1611       H  0.40164039  0.28672707  0.29341132     0.11900
H1612       H  0.41892876  0.28175865  0.26273922     0.13100
H1613       H  0.41957699  0.26409809  0.22870315     0.12100
H1614       H  0.34231762  0.20900396  0.23744469     0.09200
H1615       H  0.34421256  0.19220954  0.20383460     0.12500
H1616       H  0.40326659  0.23953699  0.20011129     0.14400
C1617       C  0.12935412  0.95342905  0.55625471    -0.01200
C1618       C  0.14754765  0.95247795  0.54646265    -0.09200
C1619       C  0.14814358  0.95093271  0.52634553    -0.18000
C1620       C  0.13042820  0.95135553  0.51535630     0.04400
C1621       C  0.11202104  0.95403527  0.52539600     0.18600
C1622       C  0.11162311  0.95390844  0.54566231    -0.19400
C1623       C  0.09418853  0.95770374  0.51514794    -0.20700
C1624       C  0.09429344  0.95973870  0.49510007    -0.19200
C1625       C  0.11213296  0.95631510  0.48480174     0.20000
C1626       C  0.13036066  0.95048944  0.49477088     0.02100
C1627       C  0.14769485  0.94370749  0.48369480    -0.14000
C1628       C  0.14709044  0.94456422  0.46357729    -0.11700
C1629       C  0.12937235  0.95301387  0.45390972     0.01600
C1630       C  0.11189176  0.95857155  0.46456192    -0.23900
H1631       H  0.16140145  0.95248225  0.55443227     0.09600
H1632       H  0.16269519  0.95061030  0.51979272     0.13200
H1633       H  0.09751057  0.95551333  0.55322995     0.11900
H1634       H  0.08011323  0.96001704  0.52270886     0.13100
H1635       H  0.08030523  0.96363211  0.48759017     0.12100
H1636       H  0.16185717  0.93702560  0.49016381     0.09200
H1637       H  0.16067371  0.93951421  0.45552864     0.12500
H1638       H  0.09803338  0.96404304  0.45704539     0.14400
C1639       C  0.11936528  0.46595463  0.55042475    -0.01200
C1640       C  0.11269324  0.49932922  0.54098520    -0.09200
C1641       C  0.11181462  0.50080246  0.52084949    -0.18000
C1642       C  0.11751165  0.46861499  0.50947085     0.04400
C1643       C  0.12363580  0.43441537  0.51921630     0.18600
C1644       C  0.12454805  0.43345180  0.53942442    -0.19400
C1645       C  0.12913126  0.40146901  0.50875893    -0.20700
C1646       C  0.12922804  0.40198474  0.48874212    -0.19200
C1647       C  0.12382753  0.43545435  0.47869583     0.20000
C1648       C  0.11763777  0.46916717  0.48883405     0.02100
C1649       C  0.11211963  0.50196503  0.47782908    -0.14000
C1650       C  0.11298599  0.50133554  0.45765919    -0.11700
C1651       C  0.11948745  0.46822470  0.44782855     0.01600
C1652       C  0.12475660  0.43536032  0.45849530    -0.23900
H1653       H  0.10855447  0.52479876  0.54918542     0.09600
H1654       H  0.10681333  0.52765840  0.51464075     0.13200
H1655       H  0.12947155  0.40728942  0.54661858     0.11900
H1656       H  0.13363363  0.37523019  0.51611924     0.13100
H1657       H  0.13378476  0.37611451  0.48105800     0.12100
H1658       H  0.10717138  0.52859153  0.48435976     0.09200
H1659       H  0.10877224  0.52706828  0.44974107     0.12500
H1660       H  0.12957088  0.40937946  0.45103966     0.14400
C1661       C  0.12162312  0.81223533  0.63481965    -0.01200
C1662       C  0.13138694  0.79253498  0.64972946    -0.09200
C1663       C  0.13430113  0.75264882  0.64877398    -0.18000
C1664       C  0.12764023  0.73111025  0.63268974     0.04400
C1665       C  0.11687739  0.75099251  0.61807479     0.18600
C1666       C  0.11392045  0.79106044  0.61930071    -0.19400
C1667       C  0.10948672  0.73095874  0.60207821    -0.20700
C1668       C  0.11259126  0.69145416  0.60021719    -0.19200
C1669       C  0.12334145  0.67117545  0.61420651     0.20000
C1670       C  0.13124483  0.69065000  0.63055286     0.02100
C1671       C  0.14245087  0.66873023  0.64395137    -0.14000
C1672       C  0.14478732  0.62881727  0.64167760    -0.11700
C1673       C  0.13608187  0.60965831  0.62603483     0.01600
C1674       C  0.12586225  0.63123317  0.61209802    -0.23900
H1675       H  0.13731333  0.80814282  0.66201026     0.09600
H1676       H  0.14202500  0.73966480  0.66074163     0.13200
H1677       H  0.10625876  0.80595906  0.60772274     0.11900
H1678       H  0.10124981  0.74595035  0.59091897     0.13100
H1679       H  0.10655842  0.67665462  0.58772373     0.12100
H1680       H  0.14937138  0.68142559  0.65646268     0.09200
H1681       H  0.15272411  0.61270660  0.65263651     0.12500
H1682       H  0.11925628  0.61666183  0.59979742     0.14400
C1683       C  0.12226419  0.31320819  0.62363085    -0.01200
C1684       C  0.13166181  0.29423007  0.60817883    -0.09200
C1685       C  0.13344760  0.25406294  0.60780458    -0.18000
C1686       C  0.12591775  0.23122982  0.62302165     0.04400
C1687       C  0.11570260  0.25043665  0.63830532     0.18600
C1688       C  0.11397558  0.29098982  0.63848132    -0.19400
C1689       C  0.10752627  0.22911227  0.65350188    -0.20700
C1690       C  0.10946763  0.18913500  0.65400499    -0.19200
C1691       C  0.11982794  0.16954567  0.63943790     0.20000
C1692       C  0.12826390  0.19014006  0.62371822     0.02100
C1693       C  0.13887722  0.16867778  0.60959475    -0.14000
C1694       C  0.14078624  0.12842204  0.61099721    -0.11700
C1695       C  0.13211611  0.10837872  0.62638806     0.01600
C1696       C  0.12176403  0.12929807  0.64057433    -0.23900
H1697       H  0.13800069  0.31053921  0.59632416     0.09600
H1698       H  0.14092347  0.24184731  0.59547552     0.13200
H1699       H  0.10657425  0.30527285  0.65043378     0.11900
H1700       H  0.09964472  0.24346542  0.66513496     0.13100
H1701       H  0.10297297  0.17343966  0.66599690     0.12100
H1702       H  0.14587749  0.18208240  0.59732096     0.09200
H1703       H  0.14868939  0.11287736  0.59977638     0.12500
H1704       H  0.11504435  0.11413543  0.65263071     0.14400
C1705       C  0.12665223  0.54094374  0.94828779    -0.01200
C1706       C  0.11271643  0.51785852  0.95792531    -0.09200
C1707       C  0.11241402  0.51608592  0.97799134    -0.18000
C1708       C  0.12623635  0.53729653  0.98915089     0.04400
C1709       C  0.14016419  0.56117050  0.97929770     0.18600
C1710       C  0.14023072  0.56281316  0.95908120    -0.19400
C1711       C  0.15398099  0.58319319  0.98966269    -0.20700
C1712       C  0.15417921  0.58227818  0.00969642    -0.19200
C1713       C  0.14067734  0.55906378  0.01981479     0.20000
C1714       C  0.12666099  0.53585996  0.00970234     0.02100
C1715       C  0.11371910  0.51215469  0.02061716    -0.14000
C1716       C  0.11432490  0.51230262  0.04069621    -0.11700
C1717       C  0.12776999  0.53602604  0.05059440     0.01600
C1718       C  0.14105483  0.55905461  0.04004261    -0.23900
H1719       H  0.10192236  0.50100092  0.94991958     0.09600
H1720       H  0.10112637  0.49788901  0.98427097     0.13200
H1721       H  0.15106490  0.58084157  0.95174234     0.11900
H1722       H  0.16464897  0.60140431  0.98222435     0.13100
H1723       H  0.16496870  0.59986340  0.01733167     0.12100
H1724       H  0.10294415  0.49310439  0.01413269     0.09200
H1725       H  0.10400786  0.49398085  0.04849902     0.12500
H1726       H  0.15170986  0.57715330  0.04757307     0.14400
C1727       C  0.12695000  0.52721005  0.79891632    -0.01200
C1728       C  0.10880578  0.52520817  0.78904235    -0.09200
C1729       C  0.10819730  0.51457487  0.76952350    -0.18000
C1730       C  0.12586783  0.50617421  0.75916951     0.04400
C1731       C  0.14425769  0.51021871  0.76908042     0.18600
C1732       C  0.14460103  0.51998366  0.78874981    -0.19400
C1733       C  0.16225607  0.50439019  0.75934190    -0.20700
C1734       C  0.16245026  0.49485966  0.73986157    -0.19200
C1735       C  0.14464160  0.48967645  0.72976287     0.20000
C1736       C  0.12605812  0.49434014  0.73934426     0.02100
C1737       C  0.10856595  0.48650525  0.72868557    -0.14000
C1738       C  0.10952483  0.47578621  0.70921183    -0.11700
C1739       C  0.12785132  0.47318840  0.69963787     0.01600
C1740       C  0.14534870  0.47994367  0.71007192    -0.23900
H1741       H  0.09497194  0.53071575  0.79659151     0.09600
H1742       H  0.09370948  0.51338359  0.76288868     0.13200
H1743       H  0.15873773  0.52198919  0.79621446     0.11900
H1744       H  0.17631954  0.50763887  0.76680455     0.13100
H1745       H  0.17665611  0.49110412  0.73268564     0.12100
H1746       H  0.09394342  0.48821018  0.73504286     0.09200
H1747       H  0.09579719  0.47077114  0.70143011     0.12500
H1748       H  0.15960402  0.47759125  0.70281274     0.14400
C1749       C  0.12949437  0.04042075  0.95262790    -0.01200
C1750       C  0.13963522  0.01062000  0.96215049    -0.09200
C1751       C  0.13947913  0.00808412  0.98226419    -0.18000
C1752       C  0.12921163  0.03562579  0.99363898     0.04400
C1753       C  0.11925748  0.06624877  0.98392418     0.18600
C1754       C  0.11935734  0.06819127  0.96366897    -0.19400
C1755       C  0.10931067  0.09488590  0.99447162    -0.20700
C1756       C  0.10902162  0.09383804  0.01451392    -0.19200
C1757       C  0.11849361  0.06390273  0.02451675     0.20000
C1758       C  0.12861016  0.03415744  0.01426409     0.02100
C1759       C  0.13766022  0.00431710  0.02513957    -0.14000
C1760       C  0.13712878  0.00464302  0.04530489    -0.11700
C1761       C  0.12744020  0.03439616  0.05532856     0.01600
C1762       C  0.11797207  0.06371199  0.04477555    -0.23900
H1763       H  0.14763640  0.98882518  0.95401141     0.09600
H1764       H  0.14764270  0.98434149  0.98845140     0.13200
H1765       H  0.11161010  0.09163194  0.95649734     0.11900
H1766       H  0.10177180  0.11840027  0.98716571     0.13100
H1767       H  0.10129024  0.11660029  0.02225312     0.12100
H1768       H  0.14526572  0.98029362  0.01851904     0.09200
H1769       H  0.14432498  0.98136672  0.05308403     0.12500
H1770       H  0.11037340  0.08687989  0.05235048     0.14400
C1771       C  0.12372488  0.69032019  0.87257284    -0.01200
C1772       C  0.11439187  0.71215627  0.85822137    -0.09200
C1773       C  0.11629893  0.75251415  0.85790125    -0.18000
C1774       C  0.12772410  0.77237123  0.87200267     0.04400
C1775       C  0.13698883  0.75003248  0.88660330     0.18600
C1776       C  0.13487502  0.70969838  0.88678377    -0.19400
C1777       C  0.14841959  0.76797248  0.90094642    -0.20700
C1778       C  0.15073419  0.80794468  0.90124880    -0.19200
C1779       C  0.14170715  0.83100406  0.88719562     0.20000
C1780       C  0.13019912  0.81348701  0.87227350     0.02100
C1781       C  0.12151577  0.83795302  0.85837408    -0.14000
C1782       C  0.12350556  0.87796386  0.85964583    -0.11700
C1783       C  0.13429145  0.89532138  0.87468851     0.01600
C1784       C  0.14375999  0.87157533  0.88820776    -0.23900
H1785       H  0.10580383  0.69800474  0.84703705     0.09600
H1786       H  0.10871590  0.76725013  0.84637261     0.13200
H1787       H  0.14222825  0.69330213  0.89803949     0.11900
H1788       H  0.15556723  0.75094846  0.91208817     0.13100
H1789       H  0.15953869  0.82092936  0.91263858     0.12100
H1790       H  0.11284232  0.82718979  0.84646540     0.09200
H1791       H  0.11618579  0.89553509  0.84883623     0.12500
H1792       H  0.15206810  0.88466585  0.89992276     0.14400
C1793       C  0.12513265  0.19216755  0.87513601    -0.01200
C1794       C  0.12140431  0.21280047  0.89214662    -0.09200
C1795       C  0.12484653  0.25251373  0.89309458    -0.18000
C1796       C  0.13208444  0.27309343  0.87690323     0.04400
C1797       C  0.13514423  0.25230545  0.85944856     0.18600
C1798       C  0.13180244  0.21222521  0.85875824    -0.19400
C1799       C  0.14154555  0.27161907  0.84280328    -0.20700
C1800       C  0.14465902  0.31141147  0.84302454    -0.19200
C1801       C  0.14179035  0.33270983  0.85998663     0.20000
C1802       C  0.13592728  0.31367163  0.87729357     0.02100
C1803       C  0.13385037  0.33621449  0.89419287    -0.14000
C1804       C  0.13574313  0.37626680  0.89353157    -0.11700
C1805       C  0.14021317  0.39509727  0.87620261     0.01600
C1806       C  0.14404175  0.37315913  0.85962466    -0.23900
H1807       H  0.11631371  0.19802907  0.90502309     0.09600
H1808       H  0.12162287  0.26617968  0.90671279     0.13200
H1809       H  0.13463063  0.19655345  0.84546904     0.11900
H1810       H  0.14388629  0.25592030  0.82944170     0.13100
H1811       H  0.14919495  0.32566435  0.82980345     0.12100
H1812       H  0.13036031  0.32396220  0.90807018     0.09200
H1813       H  0.13310140  0.39280299  0.90658559     0.12500
H1814       H  0.14753851  0.38772741  0.84618363     0.14400
C1815       C  0.12355936  0.97744349  0.70485344    -0.01200
C1816       C  0.10542466  0.98676327  0.71360347    -0.09200
C1817       C  0.10451510  0.99565585  0.73320591    -0.18000
C1818       C  0.12194821  0.99646237  0.74459301     0.04400
C1819       C  0.14037591  0.98757013  0.73548417     0.18600
C1820       C  0.14094408  0.97724338  0.71589983    -0.19400
C1821       C  0.15818328  0.99004052  0.74582985    -0.20700
C1822       C  0.15815159  0.00177950  0.76500680    -0.19200
C1823       C  0.14025529  0.01008412  0.77446400     0.20000
C1824       C  0.12182942  0.00661293  0.76455211     0.02100
C1825       C  0.10410718  0.01295924  0.77513691    -0.14000
C1826       C  0.10473644  0.02247761  0.79469450    -0.11700
C1827       C  0.12295412  0.02697316  0.80413701     0.01600
C1828       C  0.14065896  0.02112218  0.79393806    -0.23900
H1829       H  0.09185181  0.98731412  0.70518820     0.09600
H1830       H  0.09005563  0.00292952  0.73884925     0.13200
H1831       H  0.15505770  0.97077852  0.70901571     0.11900
H1832       H  0.17227495  0.98352797  0.73894177     0.13100
H1833       H  0.17221581  0.00397254  0.77255842     0.12100
H1834       H  0.08953954  0.00974906  0.76888224     0.09200
H1835       H  0.09090235  0.02632427  0.80250726     0.12500
H1836       H  0.15476711  0.02357267  0.80141942     0.14400
C1837       C  0.86858747  0.96170679  0.94544235    -0.01200
C1838       C  0.88401799  0.94300496  0.95530307    -0.09200
C1839       C  0.88438444  0.94184772  0.97538850    -0.18000
C1840       C  0.86920890  0.95948548  0.98644626     0.04400
C1841       C  0.85342816  0.97806146  0.97642107     0.18600
C1842       C  0.85325354  0.97902629  0.95613348    -0.19400
C1843       C  0.83798249  0.99578833  0.98670418    -0.20700
C1844       C  0.83800289  0.99598449  0.00677026    -0.19200
C1845       C  0.85345206  0.97840652  0.01705620     0.20000
C1846       C  0.86921033  0.95961357  0.00705771     0.02100
C1847       C  0.88434218  0.94197736  0.01814451    -0.14000
C1848       C  0.88390178  0.94323276  0.03824196    -0.11700
C1849       C  0.86847180  0.96213294  0.04804832     0.01600
C1850       C  0.85325481  0.97961451  0.03732644    -0.23900
H1851       H  0.89605813  0.92928592  0.94746591     0.09600
H1852       H  0.89683038  0.92705983  0.98176026     0.13200
H1853       H  0.84117166  0.99340658  0.94868009     0.11900
H1854       H  0.82585717  0.00984034  0.97917223     0.13100
H1855       H  0.82588749  0.01017309  0.01430067     0.12100
H1856       H  0.89676348  0.92700127  0.01178804     0.09200
H1857       H  0.89584807  0.92943082  0.04613533     0.12500
H1858       H  0.84114931  0.99407043  0.04475515     0.14400
C1859       C  0.94752073  0.98943296  0.87968073    -0.01200
C1860       C  0.95390667  0.02801166  0.88033045    -0.09200
C1861       C  0.97398896  0.03708164  0.88248116    -0.18000
C1862       C  0.98850049  0.00762436  0.88362818     0.04400
C1863       C  0.98190209  0.96844718  0.88290419     0.18600
C1864       C  0.96153647  0.95974745  0.88135398    -0.19400
C1865       C  0.99570063  0.93818781  0.88324037    -0.20700
C1866       C  0.01596675  0.94593256  0.88374905    -0.19200
C1867       C  0.02291513  0.98410908  0.88438843     0.20000
C1868       C  0.00932559  0.01556507  0.88487534     0.02100
C1869       C  0.01724734  0.05349425  0.88636452    -0.14000
C1870       C  0.03780082  0.05985838  0.88655490    -0.11700
C1871       C  0.05101402  0.02877197  0.88503687     0.01600
C1872       C  0.04345576  0.99098973  0.88425175    -0.23900
H1873       H  0.94324766  0.05141909  0.87922731     0.09600
H1874       H  0.97770865  0.06745039  0.88272419     0.13200
H1875       H  0.95664678  0.92984377  0.88072990     0.11900
H1876       H  0.99080129  0.90831115  0.88267103     0.13100
H1877       H  0.02629839  0.92185598  0.88354814     0.12100
H1878       H  0.00795707  0.07886573  0.88735411     0.09200
H1879       H  0.04337026  0.08924920  0.88726570     0.12500
H1880       H  0.05366699  0.96672916  0.88341054     0.14400
C1881       C  0.87018558  0.46714723  0.94759908    -0.01200
C1882       C  0.85783886  0.49284423  0.95766289    -0.09200
C1883       C  0.85726160  0.49291775  0.97776119    -0.18000
C1884       C  0.86906505  0.46701145  0.98861180     0.04400
C1885       C  0.88171484  0.44116265  0.97837900     0.18600
C1886       C  0.88218667  0.44148081  0.95809432    -0.19400
C1887       C  0.89376378  0.41505855  0.98845086    -0.20700
C1888       C  0.89359929  0.41416336  0.00852286    -0.19200
C1889       C  0.88132148  0.43924576  0.01903088     0.20000
C1890       C  0.86878036  0.46587853  0.00921670     0.02100
C1891       C  0.85645296  0.49018136  0.02046740    -0.14000
C1892       C  0.85667913  0.48832782  0.04054206    -0.11700
C1893       C  0.86920781  0.46243665  0.05021437     0.01600
C1894       C  0.88150269  0.43788202  0.03932996    -0.23900
H1895       H  0.84845487  0.51309772  0.94997605     0.09600
H1896       H  0.84739262  0.51364123  0.98430265     0.13200
H1897       H  0.89180612  0.42141709  0.95048525     0.11900
H1898       H  0.90342107  0.39522098  0.98074790     0.13100
H1899       H  0.90314498  0.39368197  0.01588257     0.12100
H1900       H  0.84641569  0.51095836  0.01426399     0.09200
H1901       H  0.84703128  0.50767990  0.04853813     0.12500
H1902       H  0.89116423  0.41752570  0.04664494     0.14400
C1903       C  0.86151546  0.61577352  0.87250329    -0.01200
C1904       C  0.85649944  0.63763118  0.88877136    -0.09200
C1905       C  0.85857073  0.67790518  0.88856031    -0.18000
C1906       C  0.86554034  0.69739357  0.87188619     0.04400
C1907       C  0.86880213  0.67523534  0.85491342     0.18600
C1908       C  0.86710589  0.63482050  0.85546702    -0.19400
C1909       C  0.87411023  0.69345940  0.83761065    -0.20700
C1910       C  0.87635666  0.73343628  0.83683014    -0.19200
C1911       C  0.87425395  0.75587532  0.85352760     0.20000
C1912       C  0.86937172  0.73799397  0.87141644     0.02100
C1913       C  0.86913507  0.76131727  0.88816607    -0.14000
C1914       C  0.87275986  0.80097810  0.88705060    -0.11700
C1915       C  0.87627370  0.81878481  0.86923533     0.01600
C1916       C  0.87710678  0.79611284  0.85250881    -0.23900
H1917       H  0.85188690  0.62342900  0.90196932     0.09600
H1918       H  0.85464455  0.69302734  0.90163850     0.13200
H1919       H  0.87053612  0.61796539  0.84266732     0.11900
H1920       H  0.87641722  0.67669550  0.82456641     0.13100
H1921       H  0.88022160  0.74678372  0.82317878     0.12100
H1922       H  0.86649422  0.74962811  0.90235992     0.09200
H1923       H  0.87207297  0.81808283  0.90015102     0.12500
H1924       H  0.88009168  0.80981402  0.83872719     0.14400
C1925       C  0.87078656  0.31916008  0.87160637    -0.01200
C1926       C  0.85244735  0.30152119  0.86773224    -0.09200
C1927       C  0.85005768  0.26159129  0.86962579    -0.18000
C1928       C  0.86619159  0.23782059  0.87503837     0.04400
C1929       C  0.88497015  0.25584051  0.87824352     0.18600
C1930       C  0.88696005  0.29622560  0.87700242    -0.19400
C1931       C  0.90173121  0.23340180  0.88234776    -0.20700
C1932       C  0.90039078  0.19332104  0.88281329    -0.19200
C1933       C  0.88210228  0.17483443  0.87994267     0.20000
C1934       C  0.86456279  0.19674196  0.87674522     0.02100
C1935       C  0.84626548  0.17644960  0.87530708    -0.14000
C1936       C  0.84569230  0.13590639  0.87576076    -0.11700
C1937       C  0.86330607  0.11470924  0.87739689     0.01600
C1938       C  0.88134470  0.13438390  0.87993594    -0.23900
H1939       H  0.83971061  0.31886358  0.86363660     0.09600
H1940       H  0.83553480  0.25007281  0.86636923     0.13200
H1941       H  0.90121299  0.30979720  0.87984841     0.11900
H1942       H  0.91608470  0.24688779  0.88472034     0.13100
H1943       H  0.91376236  0.17664286  0.88546147     0.12100
H1944       H  0.83220179  0.19113016  0.87381232     0.09200
H1945       H  0.83158799  0.12112740  0.87407700     0.12500
H1946       H  0.89497677  0.11796514  0.88171580     0.14400
C1947       C  0.94732874  0.48097513  0.87432265    -0.01200
C1948       C  0.95890057  0.46599576  0.88937347    -0.09200
C1949       C  0.97948214  0.47234373  0.88995162    -0.18000
C1950       C  0.98925917  0.49376521  0.87530501     0.04400
C1951       C  0.97747955  0.50808715  0.85986088     0.18600
C1952       C  0.95682617  0.50179354  0.85956740    -0.19400
C1953       C  0.98632819  0.52889347  0.84480023    -0.20700
C1954       C  0.00664200  0.53635758  0.84482261    -0.19200
C1955       C  0.01866899  0.52332780  0.85993339     0.20000
C1956       C  0.01020843  0.50165254  0.87537343     0.02100
C1957       C  0.02311285  0.48902939  0.89017833    -0.14000
C1958       C  0.04346259  0.49737612  0.88958592    -0.11700
C1959       C  0.05173270  0.51886442  0.87436469     0.01600
C1960       C  0.03915643  0.53185411  0.85962339    -0.23900
H1961       H  0.95196207  0.44989220  0.90097749     0.09600
H1962       H  0.98731272  0.46024481  0.90209906     0.13200
H1963       H  0.94808766  0.51325971  0.84773788     0.11900
H1964       H  0.97744143  0.53965818  0.83292400     0.13100
H1965       H  0.01298008  0.55265605  0.83295324     0.12100
H1966       H  0.01794431  0.47258840  0.90241929     0.09200
H1967       H  0.05278484  0.48700428  0.90122219     0.12500
H1968       H  0.04536940  0.54819383  0.84769669     0.14400
C1969       C  0.87745748  0.55108486  0.55214789    -0.01200
C1970       C  0.89182274  0.52870357  0.54262026    -0.09200
C1971       C  0.89240229  0.52699706  0.52247249    -0.18000
C1972       C  0.87845234  0.54755560  0.51116187     0.04400
C1973       C  0.86391933  0.57014870  0.52097805     0.18600
C1974       C  0.86358996  0.57174259  0.54117903    -0.19400
C1975       C  0.84972784  0.59110350  0.51061284    -0.20700
C1976       C  0.84968803  0.59041323  0.49061065    -0.19200
C1977       C  0.86378174  0.56860934  0.48048440     0.20000
C1978       C  0.87832886  0.54663321  0.49052848     0.02100
C1979       C  0.89198348  0.52469935  0.47942951    -0.14000
C1980       C  0.89117620  0.52471994  0.45925093    -0.11700
C1981       C  0.87688643  0.54677027  0.44950051     0.01600
C1982       C  0.86328140  0.56863635  0.46028629    -0.23900
H1983       H  0.90276323  0.51255733  0.55076853     0.09600
H1984       H  0.90395628  0.50936661  0.51619117     0.13200
H1985       H  0.85232847  0.58899304  0.54838782     0.11900
H1986       H  0.83859239  0.60826568  0.51803437     0.13100
H1987       H  0.83851916  0.60706330  0.48299560     0.12100
H1988       H  0.90340577  0.50709314  0.48590482     0.09200
H1989       H  0.90183503  0.50749607  0.45125813     0.12500
H1990       H  0.85201394  0.58554784  0.45293755     0.14400
C1991       C  0.94815404  0.53064640  0.63363960    -0.01200
C1992       C  0.95407356  0.49212958  0.63101168    -0.09200
C1993       C  0.97407452  0.48174122  0.63138159    -0.18000
C1994       C  0.98906468  0.50985258  0.63405145     0.04400
C1995       C  0.98306152  0.54908544  0.63656300     0.18600
C1996       C  0.96270386  0.55901082  0.63677765    -0.19400
C1997       C  0.99743846  0.57820408  0.63830653    -0.20700
C1998       C  0.01760907  0.56935400  0.63711057    -0.19200
C1999       C  0.02393949  0.53101320  0.63472657     0.20000
C2000       C  0.00978111  0.50053940  0.63375127     0.02100
C2001       C  0.01700544  0.46208296  0.63249375    -0.14000
C2002       C  0.03739066  0.45440207  0.63161562    -0.11700
C2003       C  0.05117758  0.48466227  0.63157588     0.01600
C2004       C  0.04437678  0.52290662  0.63325197    -0.23900
H2005       H  0.94308396  0.46969853  0.62857679     0.09600
H2006       H  0.97730762  0.45158843  0.62896796     0.13200
H2007       H  0.95822779  0.58895201  0.63856439     0.11900
H2008       H  0.99304728  0.60815693  0.64017381     0.13100
H2009       H  0.02834698  0.59268363  0.63809074     0.12100
H2010       H  0.00731143  0.43725053  0.63234426     0.09200
H2011       H  0.04238641  0.42467620  0.63048707     0.12500
H2012       H  0.05507570  0.54641153  0.63361293     0.14400
C2013       C  0.86527776  0.54164299  0.70049031    -0.01200
C2014       C  0.84927236  0.52070997  0.70821374    -0.09200
C2015       C  0.84878120  0.51096080  0.72772485    -0.18000
C2016       C  0.86447330  0.52161302  0.74019716     0.04400
C2017       C  0.88024416  0.54428024  0.73244038     0.18600
C2018       C  0.88044627  0.55419421  0.71282864    -0.19400
C2019       C  0.89602716  0.55610518  0.74416891    -0.20700
C2020       C  0.89674468  0.54521715  0.76341563    -0.19200
C2021       C  0.88173846  0.52211683  0.77135958     0.20000
C2022       C  0.86530335  0.51008169  0.75995404     0.02100
C2023       C  0.85065508  0.48650973  0.76877370    -0.14000
C2024       C  0.85232150  0.47541887  0.78807543    -0.11700
C2025       C  0.86851099  0.48760849  0.79921118     0.01600
C2026       C  0.88314959  0.51093550  0.79071392    -0.23900
H2027       H  0.83721240  0.51100994  0.69905321     0.09600
H2028       H  0.83606468  0.49452254  0.73249898     0.13200
H2029       H  0.89284214  0.57062960  0.70705160     0.11900
H2030       H  0.90803347  0.57352719  0.73835722     0.13100
H2031       H  0.90925645  0.55458306  0.77210180     0.12100
H2032       H  0.83772704  0.47612427  0.76117508     0.09200
H2033       H  0.84066984  0.45785001  0.79440203     0.12500
H2034       H  0.89573677  0.52062600  0.79922709     0.14400
C2035       C  0.87088756  0.05719161  0.54740537    -0.01200
C2036       C  0.87679848  0.09063739  0.53760699    -0.09200
C2037       C  0.87675357  0.09186033  0.51745360    -0.18000
C2038       C  0.87026942  0.05971003  0.50644225     0.04400
C2039       C  0.86362716  0.02630109  0.51658417     0.18600
C2040       C  0.86440212  0.02504722  0.53685431    -0.19400
C2041       C  0.85614941  0.99441991  0.50644841    -0.20700
C2042       C  0.85530016  0.99474133  0.48640146    -0.19200
C2043       C  0.86234979  0.02657435  0.47594827     0.20000
C2044       C  0.87006503  0.05946540  0.48579183     0.02100
C2045       C  0.87755613  0.09030952  0.47450614    -0.14000
C2046       C  0.87759042  0.08832075  0.45437263    -0.11700
C2047       C  0.86991045  0.05591855  0.44473798     0.01600
C2048       C  0.86205278  0.02536560  0.45565948    -0.23900
H2049       H  0.88178411  0.11579291  0.54560826     0.09600
H2050       H  0.88163527  0.11855518  0.51094520     0.13200
H2051       H  0.85953221  0.99932895  0.54448846     0.11900
H2052       H  0.85085297  0.96906275  0.51408994     0.13100
H2053       H  0.84938702  0.96959788  0.47900205     0.12100
H2054       H  0.88386333  0.11608395  0.48079264     0.09200
H2055       H  0.88366019  0.11242133  0.44628924     0.12500
H2056       H  0.85618502  0.00004370  0.44835967     0.14400
C2057       C  0.88019303  0.70330404  0.62970403    -0.01200
C2058       C  0.87353727  0.72285487  0.64618238    -0.09200
C2059       C  0.87042285  0.76289930  0.64576947    -0.18000
C2060       C  0.87420601  0.78456859  0.62882139     0.04400
C2061       C  0.88222611  0.76464250  0.61260336     0.18600
C2062       C  0.88476475  0.72440121  0.61307932    -0.19400
C2063       C  0.88740984  0.78485101  0.59586700    -0.20700
C2064       C  0.88474211  0.82459471  0.59480254    -0.19200
C2065       C  0.87621831  0.84487607  0.61020651     0.20000
C2066       C  0.87045227  0.82519134  0.62732880     0.02100
C2067       C  0.86098141  0.84701719  0.64201479    -0.14000
C2068       C  0.85819877  0.88698971  0.64005644    -0.11700
C2069       C  0.86489562  0.90637186  0.62353330     0.01600
C2070       C  0.87359057  0.88493321  0.60857312    -0.23900
H2071       H  0.86981918  0.70685552  0.65913525     0.09600
H2072       H  0.86499729  0.77606890  0.65886750     0.13200
H2073       H  0.89003253  0.70923758  0.60034202     0.11900
H2074       H  0.89369253  0.76983567  0.58354433     0.13100
H2075       H  0.88913939  0.83951309  0.58171858     0.12100
H2076       H  0.85558390  0.83399969  0.65514994     0.09200
H2077       H  0.85146064  0.90297724  0.65182457     0.12500
H2078       H  0.87862664  0.89963083  0.59562972     0.14400
C2079       C  0.88032045  0.20332520  0.62551995    -0.01200
C2080       C  0.87918889  0.22302170  0.60793614    -0.09200
C2081       C  0.87661209  0.26291761  0.60737105    -0.18000
C2082       C  0.87471283  0.28466929  0.62455096     0.04400
C2083       C  0.87651871  0.26478962  0.64244968     0.18600
C2084       C  0.87954626  0.22441357  0.64279040    -0.19400
C2085       C  0.87473042  0.28519997  0.65983808    -0.20700
C2086       C  0.87099165  0.32486166  0.65984441    -0.19200
C2087       C  0.86899268  0.34515338  0.64246106     0.20000
C2088       C  0.87090501  0.32532136  0.62454996     0.02100
C2089       C  0.86903096  0.34710781  0.60736742    -0.14000
C2090       C  0.86617064  0.38698016  0.60796640    -0.11700
C2091       C  0.86454201  0.40639451  0.62556720     0.01600
C2092       C  0.86557503  0.38537603  0.64281634    -0.23900
H2093       H  0.87982879  0.20723062  0.59442273     0.09600
H2094       H  0.87571467  0.27553485  0.59323068     0.13200
H2095       H  0.88020007  0.20918433  0.65644699     0.11900
H2096       H  0.87608605  0.27033312  0.67353831     0.13100
H2097       H  0.86968340  0.33978756  0.67355084     0.12100
H2098       H  0.87015681  0.33454624  0.59321510     0.09200
H2099       H  0.86564532  0.40298590  0.59452970     0.12500
H2100       H  0.86477897  0.40063672  0.65647846     0.14400
C2101       C  0.94823520  0.03277723  0.61947909    -0.01200
C2102       C  0.95540729  0.00269769  0.60775830    -0.09200
C2103       C  0.97539271  0.99192009  0.60820877    -0.18000
C2104       C  0.98900985  0.01095802  0.62048233     0.04400
C2105       C  0.98184907  0.04255335  0.63172058     0.18600
C2106       C  0.96167331  0.05304923  0.63115773    -0.19400
C2107       C  0.99479801  0.06316096  0.64370646    -0.20700
C2108       C  0.01469408  0.05279632  0.64499520    -0.19200
C2109       C  0.02208846  0.02131188  0.63448621     0.20000
C2110       C  0.00941160  0.99977800  0.62209793     0.02100
C2111       C  0.01771215  0.96782456  0.61209245    -0.14000
C2112       C  0.03782531  0.95823987  0.61406336    -0.11700
C2113       C  0.05028371  0.98004315  0.62606758     0.01600
C2114       C  0.04218493  0.01135529  0.63632788    -0.23900
H2115       H  0.94543069  0.98666900  0.59844583     0.09600
H2116       H  0.97967401  0.96835701  0.59886958     0.13200
H2117       H  0.95637010  0.07660075  0.64015363     0.11900
H2118       H  0.98948295  0.08739735  0.65221533     0.13100
H2119       H  0.02434373  0.06935291  0.65442572     0.12100
H2120       H  0.00905650  0.94960898  0.60264749     0.09200
H2121       H  0.04366771  0.93387495  0.60601138     0.12500
H2122       H  0.05161011  0.02849845  0.64572443     0.14400
C2123       C  0.87857363  0.98753785  0.79686034    -0.01200
C2124       C  0.89306122  0.01275085  0.78950740    -0.09200
C2125       C  0.89360253  0.02202316  0.76989340    -0.18000
C2126       C  0.87941633  0.00665853  0.75692356     0.04400
C2127       C  0.86508744  0.98026167  0.76438943     0.18600
C2128       C  0.86489600  0.97078899  0.78409543    -0.19400
C2129       C  0.85073913  0.96401976  0.75223211    -0.20700
C2130       C  0.85006509  0.97387112  0.73282697    -0.19200
C2131       C  0.86373081  0.00019855  0.72507883     0.20000
C2132       C  0.87871006  0.01685560  0.73692159     0.02100
C2133       C  0.89212179  0.04325374  0.72821971    -0.14000
C2134       C  0.89068406  0.05259031  0.70861993    -0.11700
C2135       C  0.87584659  0.03610290  0.69705040     0.01600
C2136       C  0.86242563  0.00994286  0.70547966    -0.23900
H2137       H  0.90396342  0.02576891  0.79900831     0.09600
H2138       H  0.90513906  0.04173437  0.76539787     0.13200
H2139       H  0.85362731  0.95120046  0.78959512     0.11900
H2140       H  0.83981531  0.94382109  0.75781499     0.13100
H2141       H  0.83866394  0.96097646  0.72382862     0.12100
H2142       H  0.90390311  0.05718499  0.73615524     0.09200
H2143       H  0.90130102  0.07273218  0.70249925     0.12500
H2144       H  0.85092158  0.99671284  0.69671639     0.14400
C2145       C  0.37353665  0.79531456  0.44906907    -0.01200
C2146       C  0.36224735  0.82301238  0.45893331    -0.09200
C2147       C  0.36301739  0.82581281  0.47893806    -0.18000
C2148       C  0.37518111  0.80067798  0.48986472     0.04400
C2149       C  0.38678969  0.77279913  0.47982141     0.18600
C2150       C  0.38588018  0.77035913  0.45960982    -0.19400
C2151       C  0.39915313  0.74743941  0.49001109    -0.20700
C2152       C  0.40005331  0.74886653  0.51005229    -0.19200
C2153       C  0.38857125  0.77561870  0.52036791     0.20000
C2154       C  0.37606156  0.80205984  0.51039452     0.02100
C2155       C  0.36473617  0.82851412  0.52140265    -0.14000
C2156       C  0.36548492  0.82815288  0.54142617    -0.11700
C2157       C  0.37752463  0.80168625  0.55126235     0.01600
C2158       C  0.38927056  0.77575499  0.54064033    -0.23900
H2159       H  0.35269467  0.84285976  0.45117302     0.09600
H2160       H  0.35390213  0.84784403  0.48526432     0.13200
H2161       H  0.39475863  0.74891562  0.45211118     0.11900
H2162       H  0.40810136  0.72620607  0.48243683     0.13100
H2163       H  0.40965873  0.72868348  0.51753843     0.12100
H2164       H  0.35501065  0.84954527  0.51513611     0.09200
H2165       H  0.35632789  0.84870216  0.54922723     0.12500
H2166       H  0.39865761  0.75518565  0.54812228     0.14400
C2167       C  0.29792159  0.83750431  0.62518244    -0.01200
C2168       C  0.29271543  0.86666026  0.61198566    -0.09200
C2169       C  0.27430998  0.88514797  0.61286941    -0.18000
C2170       C  0.26017787  0.87518109  0.62708797     0.04400
C2171       C  0.26523882  0.84510621  0.64026015     0.18600
C2172       C  0.28394246  0.82660812  0.63920909    -0.19400
C2173       C  0.25165817  0.83395651  0.65452885    -0.20700
C2174       C  0.23318403  0.85188433  0.65598684    -0.19200
C2175       C  0.22778473  0.88152590  0.64324270     0.20000
C2176       C  0.24120553  0.89383907  0.62865648     0.02100
C2177       C  0.23495035  0.92409571  0.61624254    -0.14000
C2178       C  0.21594662  0.94041184  0.61788015    -0.11700
C2179       C  0.20256475  0.92744837  0.63197210     0.01600
C2180       C  0.20883070  0.89840970  0.64482300    -0.23900
H2181       H  0.30309918  0.87594297  0.60095293     0.09600
H2182       H  0.27168614  0.90728372  0.60226943     0.13200
H2183       H  0.28774270  0.80431718  0.64956128     0.11900
H2184       H  0.25533192  0.81113447  0.66463172     0.13100
H2185       H  0.22299250  0.84235521  0.66714395     0.12100
H2186       H  0.24425742  0.93546361  0.60495131     0.09200
H2187       H  0.21157544  0.96268563  0.60774699     0.12500
H2188       H  0.19871065  0.88800109  0.65584715     0.14400
C2189       C  0.36811312  0.28798457  0.44731398    -0.01200
C2190       C  0.35274963  0.26987085  0.45763546    -0.09200
C2191       C  0.35249246  0.27015949  0.47785802    -0.18000
C2192       C  0.36771413  0.28866250  0.48856628     0.04400
C2193       C  0.38343741  0.30637946  0.47804577     0.18600
C2194       C  0.38348322  0.30592885  0.45773387    -0.19400
C2195       C  0.39903180  0.32468025  0.48784113    -0.20700
C2196       C  0.39932803  0.32607436  0.50789874    -0.19200
C2197       C  0.38400266  0.30931938  0.51874115     0.20000
C2198       C  0.36795097  0.29034213  0.50926514     0.02100
C2199       C  0.35283379  0.27412859  0.52095831    -0.14000
C2200       C  0.35369652  0.27648302  0.54110833    -0.11700
C2201       C  0.36956997  0.29510944  0.55043297     0.01600
C2202       C  0.38466230  0.31154008  0.53904518    -0.23900
H2203       H  0.34072368  0.25559471  0.45005451     0.09600
H2204       H  0.34014943  0.25569791  0.48468220     0.13200
H2205       H  0.39556914  0.31982972  0.45002112     0.11900
H2206       H  0.41110196  0.33813426  0.47991760     0.13100
H2207       H  0.41162554  0.34053620  0.51498969     0.12100
H2208       H  0.34009483  0.25950749  0.51497336     0.09200
H2209       H  0.34174493  0.26367280  0.54943118     0.12500
H2210       H  0.39703537  0.32607530  0.54598431     0.14400
C2211       C  0.36448150  0.65252381  0.61892946    -0.01200
C2212       C  0.37671339  0.63391316  0.60536404    -0.09200
C2213       C  0.37869505  0.59379309  0.60523569    -0.18000
C2214       C  0.36856517  0.57073264  0.61888041     0.04400
C2215       C  0.35524829  0.58953271  0.63185637     0.18600
C2216       C  0.35323793  0.63002202  0.63169378    -0.19400
C2217       C  0.34450370  0.56794643  0.64536937    -0.20700
C2218       C  0.34709156  0.52817350  0.64666845    -0.19200
C2219       C  0.36057052  0.50905483  0.63456014     0.20000
C2220       C  0.37142309  0.52987988  0.62036910     0.02100
C2221       C  0.38488307  0.50893933  0.60856619    -0.14000
C2222       C  0.38723273  0.46897239  0.61067601    -0.11700
C2223       C  0.37641052  0.44865012  0.62465608     0.01600
C2224       C  0.36319622  0.46906357  0.63660119    -0.23900
H2225       H  0.38533739  0.65054446  0.59507423     0.09600
H2226       H  0.38858483  0.58186792  0.59454293     0.13200
H2227       H  0.34366266  0.64408982  0.64216370     0.11900
H2228       H  0.33422965  0.58199045  0.65519587     0.13100
H2229       H  0.33866638  0.51230825  0.65741099     0.12100
H2230       H  0.39378761  0.52250519  0.59756017     0.09200
H2231       H  0.39743361  0.45389181  0.60117542     0.12500
H2232       H  0.35453646  0.45368080  0.64734985     0.14400
C2233       C  0.36441135  0.15278847  0.62670707    -0.01200
C2234       C  0.35314950  0.13122220  0.61359387    -0.09200
C2235       C  0.35471108  0.09086987  0.61310495    -0.18000
C2236       C  0.36773097  0.07091640  0.62575572     0.04400
C2237       C  0.37836812  0.09294861  0.63959527     0.18600
C2238       C  0.37660122  0.13325279  0.63995211    -0.19400
C2239       C  0.39099119  0.07478334  0.65284540    -0.20700
C2240       C  0.39336887  0.03486950  0.65263914    -0.19200
C2241       C  0.38341776  0.01224601  0.63898731     0.20000
C2242       C  0.37063398  0.03002474  0.62520212     0.02100
C2243       C  0.36151265  0.00615151  0.61130114    -0.14000
C2244       C  0.36443465  0.96635125  0.61144588    -0.11700
C2245       C  0.37644947  0.94863959  0.62546571     0.01600
C2246       C  0.38610276  0.97187511  0.63909000    -0.23900
H2247       H  0.34351528  0.14559781  0.60333997     0.09600
H2248       H  0.34563529  0.07621651  0.60257607     0.13200
H2249       H  0.38516295  0.14955316  0.65043676     0.11900
H2250       H  0.39909823  0.09158987  0.66345896     0.13100
H2251       H  0.40317357  0.02164508  0.66313887     0.12100
H2252       H  0.35204472  0.01727870  0.60006797     0.09200
H2253       H  0.35680827  0.94929730  0.60061241     0.12500
H2254       H  0.39550995  0.95855843  0.64990816     0.14400
C2255       C  0.29742970  0.33892722  0.62575638    -0.01200
C2256       C  0.28480124  0.32992892  0.61034073    -0.09200
C2257       C  0.26629906  0.34810518  0.60847195    -0.18000
C2258       C  0.25977159  0.37602945  0.62208044     0.04400
C2259       C  0.27238901  0.38419843  0.63798692     0.18600
C2260       C  0.29094663  0.36587203  0.63962503    -0.19400
C2261       C  0.26646006  0.41070838  0.65217906    -0.20700
C2262       C  0.24801400  0.42879014  0.65114497    -0.19200
C2263       C  0.23516125  0.42135809  0.63571145     0.20000
C2264       C  0.24106728  0.39559757  0.62070741     0.02100
C2265       C  0.22790756  0.39034508  0.60506167    -0.14000
C2266       C  0.20918053  0.40769824  0.60498536    -0.11700
C2267       C  0.20284235  0.43108332  0.62038478     0.01600
C2268       C  0.21621334  0.43878139  0.63543500    -0.23900
H2269       H  0.28941343  0.30939576  0.59939354     0.09600
H2270       H  0.25745504  0.33960874  0.59623916     0.13200
H2271       H  0.30049909  0.37309162  0.65169981     0.11900
H2272       H  0.27605869  0.41712543  0.66432513     0.13100
H2273       H  0.24372734  0.44857810  0.66256311     0.12100
H2274       H  0.23152851  0.37261726  0.59276341     0.09200
H2275       H  0.19937229  0.40176781  0.59294953     0.12500
H2276       H  0.21160852  0.45709105  0.64734493     0.14400
C2277       C  0.36974848  0.70706074  0.94835564    -0.01200
C2278       C  0.35422855  0.72501582  0.95848251    -0.09200
C2279       C  0.35350344  0.72411595  0.97861446    -0.18000
C2280       C  0.36840725  0.70510936  0.98943842     0.04400
C2281       C  0.38410034  0.68676724  0.97913012     0.18600
C2282       C  0.38464298  0.68791854  0.95884259    -0.19400
C2283       C  0.39917081  0.66734948  0.98912511    -0.20700
C2284       C  0.39903974  0.66579002  0.00918065    -0.19200
C2285       C  0.38386970  0.68371567  0.01977500     0.20000
C2286       C  0.36832270  0.70365960  0.01007879     0.02100
C2287       C  0.35343180  0.72141824  0.02149309    -0.14000
C2288       C  0.35400781  0.71953202  0.04161556    -0.11700
C2289       C  0.36936220  0.69993055  0.05114845     0.01600
C2290       C  0.38423113  0.68196510  0.04005747    -0.23900
H2291       H  0.34246280  0.73987507  0.95081914     0.09600
H2292       H  0.34105971  0.73852823  0.98522235     0.13200
H2293       H  0.39672673  0.67380454  0.95122162     0.11900
H2294       H  0.41116662  0.65325497  0.98137133     0.13100
H2295       H  0.41094155  0.65053774  0.01646524     0.12100
H2296       H  0.34118024  0.73716226  0.01536454     0.09200
H2297       H  0.34233538  0.73375699  0.04974478     0.12500
H2298       H  0.39622970  0.66672963  0.04720563     0.14400
C2299       C  0.20400859  0.57692218  0.87306905    -0.01200
C2300       C  0.21605231  0.57172727  0.85676827    -0.09200
C2301       C  0.23469486  0.58972011  0.85549140    -0.18000
C2302       C  0.24190991  0.61364039  0.87058683     0.04400
C2303       C  0.22998642  0.61732850  0.88742312     0.18600
C2304       C  0.21135385  0.59910419  0.88850086    -0.19400
C2305       C  0.23653257  0.63976930  0.90300967    -0.20700
C2306       C  0.25470819  0.65890081  0.90224801    -0.19200
C2307       C  0.26674543  0.65640165  0.88580900     0.20000
C2308       C  0.26046441  0.63399022  0.86966210     0.02100
C2309       C  0.27302655  0.63307488  0.85330806    -0.14000
C2310       C  0.29135525  0.65213905  0.85331830    -0.11700
C2311       C  0.29784664  0.67307179  0.86950527     0.01600
C2312       C  0.28520723  0.67571390  0.88556979    -0.23900
H2313       H  0.21078059  0.55475966  0.84465459     0.09600
H2314       H  0.24299629  0.58468438  0.84242409     0.13200
H2315       H  0.20229895  0.60306418  0.90131410     0.11900
H2316       H  0.22750694  0.64258393  0.91590788     0.13100
H2317       H  0.25936477  0.67586534  0.91461168     0.12100
H2318       H  0.26920826  0.61758495  0.84033171     0.09200
H2319       H  0.30069087  0.64979552  0.84061856     0.12500
H2320       H  0.29002412  0.69171351  0.89819888     0.14400
C2321       C  0.37637195  0.73497888  0.79943525    -0.01200
C2322       C  0.36734490  0.70881350  0.78672754    -0.09200
C2323       C  0.36628921  0.71660535  0.76702566    -0.18000
C2324       C  0.37416923  0.75122294  0.75926244     0.04400
C2325       C  0.38379884  0.77729412  0.77209498     0.18600
C2326       C  0.38479792  0.76902702  0.79194689    -0.19400
C2327       C  0.39223257  0.81157306  0.76504976    -0.20700
C2328       C  0.39136830  0.82048825  0.74548071    -0.19200
C2329       C  0.38178488  0.79563997  0.73249775     0.20000
C2330       C  0.37284861  0.76085093  0.73925711     0.02100
C2331       C  0.36279695  0.73736648  0.72571468    -0.14000
C2332       C  0.36194816  0.74756031  0.70630211    -0.11700
C2333       C  0.37115780  0.78132647  0.69954392     0.01600
C2334       C  0.38104302  0.80534947  0.71277225    -0.23900
H2335       H  0.36086670  0.68216178  0.79204420     0.09600
H2336       H  0.35917108  0.69482112  0.75828367     0.13200
H2337       H  0.39186366  0.78953586  0.80161747     0.11900
H2338       H  0.39961109  0.83159388  0.77474068     0.13100
H2339       H  0.39813996  0.84714314  0.74048347     0.12100
H2340       H  0.35530606  0.71091444  0.72962519     0.09200
H2341       H  0.35424428  0.72836985  0.69645333     0.12500
H2342       H  0.38812008  0.83169560  0.70773858     0.14400
C2343       C  0.37205158  0.20897465  0.94856808    -0.01200
C2344       C  0.38672895  0.18727285  0.95795131    -0.09200
C2345       C  0.38730526  0.18510994  0.97802083    -0.18000
C2346       C  0.37307909  0.20463278  0.98948754     0.04400
C2347       C  0.35830721  0.22692137  0.97991814     0.18600
C2348       C  0.35792138  0.22887494  0.95968721    -0.19400
C2349       C  0.34397587  0.24709866  0.99058231    -0.20700
C2350       C  0.34399576  0.24569633  0.01061577    -0.19200
C2351       C  0.35826866  0.22388228  0.02046231     0.20000
C2352       C  0.37298697  0.20289735  0.01006651     0.02100
C2353       C  0.38691595  0.18100009  0.02074141    -0.14000
C2354       C  0.38632640  0.18025247  0.04084095    -0.11700
C2355       C  0.37186733  0.20113526  0.05102068     0.01600
C2356       C  0.35786370  0.22288098  0.04069775    -0.23900
H2357       H  0.39789052  0.17173042  0.94974631     0.09600
H2358       H  0.39910255  0.16791026  0.98406262     0.13200
H2359       H  0.34647285  0.24575782  0.95260007     0.11900
H2360       H  0.33268159  0.26414828  0.98337606     0.13100
H2361       H  0.33272451  0.26171513  0.01846524     0.12100
H2362       H  0.39843277  0.16399119  0.01404264     0.09200
H2363       H  0.39727109  0.16304612  0.04843001     0.12500
H2364       H  0.34658054  0.23915857  0.04840902     0.14400
C2365       C  0.35823130  0.85988362  0.87688190    -0.01200
C2366       C  0.35855088  0.88047386  0.89424034    -0.09200
C2367       C  0.36002897  0.92087913  0.89416624    -0.18000
C2368       C  0.36105999  0.94172977  0.87658960     0.04400
C2369       C  0.35883506  0.92066268  0.85909884     0.18600
C2370       C  0.35781613  0.88010923  0.85939326    -0.19400
C2371       C  0.35828065  0.94007937  0.84139041    -0.20700
C2372       C  0.36035299  0.98008019  0.84061486    -0.19200
C2373       C  0.36381539  0.00143706  0.85744896     0.20000
C2374       C  0.36449906  0.98251705  0.87567121     0.02100
C2375       C  0.36932600  0.00502213  0.89205862    -0.14000
C2376       C  0.37294277  0.04469744  0.89043899    -0.11700
C2377       C  0.37148416  0.06343560  0.87257283     0.01600
C2378       C  0.36685508  0.04160418  0.85613276    -0.23900
H2379       H  0.35880031  0.86516863  0.90787650     0.09600
H2380       H  0.36057768  0.93496379  0.90804469     0.13200
H2381       H  0.35734140  0.86404692  0.84593630     0.11900
H2382       H  0.35631287  0.92418835  0.82803173     0.13100
H2383       H  0.35981630  0.99427923  0.82668355     0.12100
H2384       H  0.37075175  0.99266681  0.90626747     0.09200
H2385       H  0.37634165  0.06102549  0.90337923     0.12500
H2386       H  0.36580699  0.05588237  0.84223937     0.14400
C2387       C  0.36236757  0.36048328  0.87294966    -0.01200
C2388       C  0.36607950  0.37851145  0.85521931    -0.09200
C2389       C  0.36820107  0.41853686  0.85397291    -0.18000
C2390       C  0.36711245  0.44206069  0.87063184     0.04400
C2391       C  0.36288389  0.42371784  0.88857755     0.18600
C2392       C  0.36020190  0.38330870  0.88952462    -0.19400
C2393       C  0.36205987  0.44565264  0.90555158    -0.20700
C2394       C  0.36574246  0.48528292  0.90518178    -0.19200
C2395       C  0.37005537  0.50412372  0.88778694     0.20000
C2396       C  0.37049050  0.48291891  0.87019178     0.02100
C2397       C  0.37426038  0.50361243  0.85294058    -0.14000
C2398       C  0.37717757  0.54361163  0.85315858    -0.11700
C2399       C  0.37693115  0.56423070  0.87053421     0.01600
C2400       C  0.37361101  0.54424652  0.88783709    -0.23900
H2401       H  0.36783046  0.36133152  0.84223262     0.09600
H2402       H  0.37132305  0.42995696  0.83981743     0.13200
H2403       H  0.35762882  0.36940214  0.90333151     0.11900
H2404       H  0.35886197  0.43195107  0.91927475     0.13100
H2405       H  0.36519195  0.50134035  0.91861877     0.12100
H2406       H  0.37464443  0.48992494  0.83895792     0.09200
H2407       H  0.37949454  0.55861376  0.83961637     0.12500
H2408       H  0.37293335  0.56025926  0.90129793     0.14400
C2409       C  0.29479040  0.18177155  0.87772159    -0.01200
C2410       C  0.28703558  0.16939484  0.89546235    -0.09200
C2411       C  0.26865759  0.15012835  0.89638719    -0.18000
C2412       C  0.25733277  0.14314074  0.87950341     0.04400
C2413       C  0.26475919  0.15823183  0.86179282     0.18600
C2414       C  0.28337705  0.17667211  0.86103568    -0.19400
C2415       C  0.25378631  0.15412436  0.84478649    -0.20700
C2416       C  0.23567760  0.13481498  0.84484913    -0.19200
C2417       C  0.22829349  0.11821326  0.86181769     0.20000
C2418       C  0.23902378  0.12169527  0.87940330     0.02100
C2419       C  0.23105881  0.10298962  0.89590730    -0.14000
C2420       C  0.21296282  0.08266126  0.89501218    -0.11700
C2421       C  0.20215338  0.08064931  0.87774777     0.01600
C2422       C  0.21011205  0.09826125  0.86121261    -0.23900
H2423       H  0.29567588  0.17287818  0.90853570     0.09600
H2424       H  0.26376995  0.14067684  0.91044219     0.13200
H2425       H  0.28925684  0.18641911  0.84728611     0.11900
H2426       H  0.25926932  0.16590906  0.83129825     0.13100
H2427       H  0.22752055  0.13232470  0.83142085     0.12100
H2428       H  0.23849657  0.10360827  0.90968093     0.09200
H2429       H  0.20706946  0.06967265  0.90804118     0.12500
H2430       H  0.20195160  0.09681778  0.84773582     0.14400
C2431       C  0.37042382  0.22900919  0.79963662    -0.01200
C2432       C  0.35274850  0.24184446  0.79115173    -0.09200
C2433       C  0.35243406  0.25391077  0.77188843    -0.18000
C2434       C  0.36983323  0.25261619  0.76038595     0.04400
C2435       C  0.38743633  0.23736432  0.76886809     0.18600
C2436       C  0.38769707  0.22670142  0.78843372    -0.19400
C2437       C  0.40469103  0.23289880  0.75778870    -0.20700
C2438       C  0.40485100  0.24303834  0.73838958    -0.19200
C2439       C  0.38799429  0.25927006  0.72976724     0.20000
C2440       C  0.37038194  0.26529802  0.74073313     0.02100
C2441       C  0.35423780  0.28410040  0.73156567    -0.14000
C2442       C  0.35529043  0.29484021  0.71210071    -0.11700
C2443       C  0.37228896  0.28669334  0.70111956     0.01600
C2444       C  0.38865584  0.26933089  0.71015562    -0.23900
H2445       H  0.33926826  0.24389292  0.79967951     0.09600
H2446       H  0.33834406  0.26378339  0.76634154     0.13200
H2447       H  0.40135775  0.21645863  0.79499122     0.11900
H2448       H  0.41809258  0.22098200  0.76410868     0.13100
H2449       H  0.41835378  0.23857208  0.73011832     0.12100
H2450       H  0.34065808  0.29106634  0.73910629     0.09200
H2451       H  0.34249593  0.30839677  0.70545304     0.12500
H2452       H  0.40200190  0.26348193  0.70183666     0.14400
C2453       C  0.62467560  0.71157870  0.54491532    -0.01200
C2454       C  0.64213677  0.70129497  0.53515880    -0.09200
C2455       C  0.64326430  0.70330715  0.51508931    -0.18000
C2456       C  0.62671140  0.71503249  0.50399940     0.04400
C2457       C  0.60859917  0.72304210  0.51383542     0.18600
C2458       C  0.60787026  0.72223964  0.53415382    -0.19400
C2459       C  0.59135849  0.73144247  0.50329878    -0.20700
C2460       C  0.59170457  0.73156276  0.48319234    -0.19200
C2461       C  0.60949722  0.72508637  0.47315932     0.20000
C2462       C  0.62740446  0.71817819  0.48347509     0.02100
C2463       C  0.64531293  0.71533799  0.47282899    -0.14000
C2464       C  0.64526873  0.71723157  0.45272630    -0.11700
C2465       C  0.62742193  0.72116433  0.44260306     0.01600
C2466       C  0.60957375  0.72548884  0.45286362    -0.23900
H2467       H  0.65520559  0.69242151  0.54313676     0.09600
H2468       H  0.65717744  0.69473101  0.50864043     0.13200
H2469       H  0.59413808  0.72928010  0.54159321     0.11900
H2470       H  0.57743318  0.73722869  0.51065077     0.13100
H2471       H  0.57802481  0.73730550  0.47544368     0.12100
H2472       H  0.65961899  0.71225579  0.47964813     0.09200
H2473       H  0.65922887  0.71440430  0.44501857     0.12500
H2474       H  0.59577661  0.72952807  0.44502156     0.14400
C2475       C  0.70119772  0.67599620  0.62049286    -0.01200
C2476       C  0.71748726  0.70110248  0.62041743    -0.09200
C2477       C  0.73687803  0.68654984  0.62122387    -0.18000
C2478       C  0.74052441  0.64621056  0.62256126     0.04400
C2479       C  0.72384655  0.62107265  0.62363443     0.18600
C2480       C  0.70447894  0.63602307  0.62218079    -0.19400
C2481       C  0.72659316  0.58121215  0.62621848    -0.20700
C2482       C  0.74563309  0.56563581  0.62760708    -0.19200
C2483       C  0.76242214  0.58933993  0.62580413     0.20000
C2484       C  0.76006680  0.62992891  0.62297310     0.02100
C2485       C  0.77736673  0.65237631  0.62021053    -0.14000
C2486       C  0.79613623  0.63538560  0.62031406    -0.11700
C2487       C  0.79851172  0.59556964  0.62346783     0.01600
C2488       C  0.78156965  0.57267603  0.62645213    -0.23900
H2489       H  0.71522491  0.73207078  0.61937027     0.09600
H2490       H  0.74867519  0.70766617  0.62105734     0.13200
H2491       H  0.69184176  0.61650983  0.62272177     0.11900
H2492       H  0.71390790  0.56195101  0.62728316     0.13100
H2493       H  0.74723523  0.53471261  0.62971710     0.12100
H2494       H  0.77690250  0.68306164  0.61749398     0.09200
H2495       H  0.80897588  0.65381186  0.61806040     0.12500
H2496       H  0.78325618  0.54180770  0.62874092     0.14400
C2497       C  0.44875658  0.77932447  0.63267813    -0.01200
C2498       C  0.46239533  0.80881594  0.63669124    -0.09200
C2499       C  0.48284113  0.80131781  0.63639491    -0.18000
C2500       C  0.49019739  0.76375514  0.63230992     0.04400
C2501       C  0.47617896  0.73345933  0.62969405     0.18600
C2502       C  0.45575626  0.74158091  0.62958810    -0.19400
C2503       C  0.48260749  0.69529701  0.62697199    -0.20700
C2504       C  0.50277676  0.68652481  0.62664009    -0.19200
C2505       C  0.51699358  0.71590650  0.62825197     0.20000
C2506       C  0.51089805  0.75510149  0.63069515     0.02100
C2507       C  0.52574915  0.78404128  0.63070366    -0.14000
C2508       C  0.54575864  0.77436723  0.62856451    -0.11700
C2509       C  0.55165718  0.73567286  0.62692114     0.01600
C2510       C  0.53728975  0.70646901  0.62695463    -0.23900
H2511       H  0.45727065  0.83802826  0.63943383     0.09600
H2512       H  0.49252359  0.82541838  0.63950305     0.13200
H2513       H  0.44521691  0.71836663  0.62699180     0.11900
H2514       H  0.47194947  0.67203014  0.62515490     0.13100
H2515       H  0.50728367  0.65667350  0.62461902     0.12100
H2516       H  0.52232021  0.81445848  0.63174441     0.09200
H2517       H  0.55676818  0.79729527  0.62835951     0.12500
H2518       H  0.54188999  0.67656844  0.62525982     0.14400
C2519       C  0.62485971  0.21178212  0.45341709    -0.01200
C2520       C  0.61676428  0.24353926  0.46317446    -0.09200
C2521       C  0.61647631  0.24469875  0.48321903    -0.18000
C2522       C  0.62431837  0.21388450  0.49423709     0.04400
C2523       C  0.63201318  0.18117769  0.48425263     0.18600
C2524       C  0.63227656  0.18047250  0.46403461    -0.19400
C2525       C  0.63957344  0.14956677  0.49449412    -0.20700
C2526       C  0.64002549  0.15004227  0.51453099    -0.19200
C2527       C  0.63301650  0.18221709  0.52475698     0.20000
C2528       C  0.62495094  0.21452220  0.51476656     0.02100
C2529       C  0.61810096  0.24630217  0.52576307    -0.14000
C2530       C  0.61924199  0.24604141  0.54578195    -0.11700
C2531       C  0.62727073  0.21427907  0.55555628     0.01600
C2532       C  0.63412643  0.18239999  0.54495862    -0.23900
H2533       H  0.61085049  0.26800982  0.45528520     0.09600
H2534       H  0.61007263  0.27030100  0.48957978     0.13200
H2535       H  0.63835598  0.15552437  0.45656383     0.11900
H2536       H  0.64531250  0.12442529  0.48695245     0.13100
H2537       H  0.64608244  0.12524217  0.52207526     0.12100
H2538       H  0.61186894  0.27202220  0.51940079     0.09200
H2539       H  0.61388808  0.27108765  0.55363808     0.12500
H2540       H  0.64027851  0.15757938  0.55243179     0.14400
C2541       C  0.63083979  0.86266451  0.61865942    -0.01200
C2542       C  0.61201508  0.88010306  0.61874551    -0.09200
C2543       C  0.60992076  0.91984066  0.62145339    -0.18000
C2544       C  0.62675434  0.94377306  0.62384114     0.04400
C2545       C  0.64589493  0.92614287  0.62301388     0.18600
C2546       C  0.64775667  0.88581189  0.62087644    -0.19400
C2547       C  0.66305164  0.94891642  0.62416316    -0.20700
C2548       C  0.66162924  0.98889933  0.62581040    -0.19200
C2549       C  0.64302327  0.00692546  0.62702469     0.20000
C2550       C  0.62529057  0.98463378  0.62661513     0.02100
C2551       C  0.60692281  0.00426783  0.62907608    -0.14000
C2552       C  0.60625420  0.04457031  0.63105354    -0.11700
C2553       C  0.62375391  0.06632326  0.63034190     0.01600
C2554       C  0.64206921  0.04728882  0.62854072    -0.23900
H2555       H  0.59868345  0.86273155  0.61718450     0.09600
H2556       H  0.59498491  0.93096253  0.62133033     0.13200
H2557       H  0.66235115  0.87249498  0.62068655     0.11900
H2558       H  0.67767028  0.93578784  0.62344533     0.13100
H2559       H  0.67519379  0.00583717  0.62627270     0.12100
H2560       H  0.59289254  0.98934482  0.62964456     0.09200
H2561       H  0.59198352  0.05884068  0.63253166     0.12500
H2562       H  0.65569833  0.06409260  0.62832621     0.14400
C2563       C  0.62084521  0.56614389  0.62624725    -0.01200
C2564       C  0.62264035  0.54853254  0.64435281    -0.09200
C2565       C  0.62622927  0.50874588  0.64583864    -0.18000
C2566       C  0.62793721  0.48532298  0.62914041     0.04400
C2567       C  0.62493917  0.50320163  0.61089276     0.18600
C2568       C  0.62164050  0.54313539  0.60962753    -0.19400
C2569       C  0.62548323  0.48126722  0.59393354    -0.20700
C2570       C  0.62874499  0.44167244  0.59466518    -0.19200
C2571       C  0.63206225  0.42325297  0.61232829     0.20000
C2572       C  0.63223713  0.44481831  0.62981329     0.02100
C2573       C  0.63671752  0.42478399  0.64710582    -0.14000
C2574       C  0.63963602  0.38463959  0.64710397    -0.11700
C2575       C  0.63802026  0.36345187  0.62995913     0.01600
C2576       C  0.63475493  0.38309194  0.61259907    -0.23900
H2577       H  0.62213219  0.56582774  0.65739290     0.09600
H2578       H  0.62767059  0.49717094  0.66020835     0.13200
H2579       H  0.62005394  0.55655093  0.59556373     0.11900
H2580       H  0.62315629  0.49477305  0.58000416     0.13100
H2581       H  0.62872068  0.42533683  0.58129984     0.12100
H2582       H  0.63784811  0.43928365  0.66084264     0.09200
H2583       H  0.64215237  0.36990771  0.66067593     0.12500
H2584       H  0.63374472  0.36677380  0.59924650     0.14400
C2585       C  0.70434911  0.18605109  0.63119891    -0.01200
C2586       C  0.71433484  0.17873393  0.64853588    -0.09200
C2587       C  0.73296822  0.16049202  0.64844145    -0.18000
C2588       C  0.74219397  0.14941074  0.63087762     0.04400
C2589       C  0.73243676  0.15933126  0.61337807     0.18600
C2590       C  0.71370409  0.17699197  0.61371997    -0.19400
C2591       C  0.74122231  0.15098285  0.59555444    -0.20700
C2592       C  0.75963809  0.13302198  0.59465248    -0.19200
C2593       C  0.76942774  0.12187375  0.61153842     0.20000
C2594       C  0.76070768  0.12904306  0.62992196     0.02100
C2595       C  0.77081711  0.11503377  0.64641227    -0.14000
C2596       C  0.78917468  0.09615743  0.64468350    -0.11700
C2597       C  0.79810333  0.09126554  0.62657128     0.01600
C2598       C  0.78802724  0.10380539  0.61008186    -0.23900
H2599       H  0.70730317  0.18541090  0.66221516     0.09600
H2600       H  0.73973738  0.15517824  0.66229051     0.13200
H2601       H  0.70609517  0.18294678  0.60024640     0.11900
H2602       H  0.73384876  0.15864276  0.58219218     0.13100
H2603       H  0.76617336  0.12740757  0.58061623     0.12100
H2604       H  0.76488985  0.11824130  0.66079695     0.09200
H2605       H  0.79680216  0.08680086  0.65762435     0.12500
H2606       H  0.79482841  0.09976802  0.59601238     0.14400
C2607       C  0.55240643  0.23986772  0.62761752    -0.01200
C2608       C  0.54540909  0.26770723  0.61453661    -0.09200
C2609       C  0.52525018  0.27702786  0.61353977    -0.18000
C2610       C  0.51121959  0.25880398  0.62569780     0.04400
C2611       C  0.51834440  0.23051787  0.63893003     0.18600
C2612       C  0.53871211  0.22131349  0.63974448    -0.19400
C2613       C  0.50510224  0.21160018  0.65132333    -0.20700
C2614       C  0.48490459  0.22001613  0.65084579    -0.19200
C2615       C  0.47742040  0.24758780  0.63796533     0.20000
C2616       C  0.49041589  0.26752026  0.62521218     0.02100
C2617       C  0.48195860  0.29517375  0.61255121    -0.14000
C2618       C  0.46147616  0.30238959  0.61247800    -0.11700
C2619       C  0.44873367  0.28241108  0.62498504     0.01600
C2620       C  0.45692230  0.25515844  0.63774699    -0.23900
H2621       H  0.55558994  0.28256976  0.60494318     0.09600
H2622       H  0.52115096  0.29870201  0.60309273     0.13200
H2623       H  0.54390768  0.19982839  0.64996034     0.11900
H2624       H  0.51040055  0.19007574  0.66145946     0.13100
H2625       H  0.47504367  0.20476192  0.66061852     0.12100
H2626       H  0.49075107  0.31165768  0.60245909     0.09200
H2627       H  0.45559407  0.32355169  0.60248216     0.12500
H2628       H  0.44728800  0.23944358  0.64756324     0.14400
C2629       C  0.63187683  0.79602343  0.94522670    -0.01200
C2630       C  0.64688746  0.77584583  0.95496477    -0.09200
C2631       C  0.64777579  0.77585017  0.97507056    -0.18000
C2632       C  0.63358059  0.79617963  0.98622805     0.04400
C2633       C  0.61844109  0.81683088  0.97629710     0.18600
C2634       C  0.61772543  0.81656654  0.95604275    -0.19400
C2635       C  0.60402692  0.83749546  0.98662523    -0.20700
C2636       C  0.60413704  0.83769466  0.00667141    -0.19200
C2637       C  0.61866872  0.81725565  0.01687952     0.20000
C2638       C  0.63372231  0.79646117  0.00683728     0.02100
C2639       C  0.64813150  0.77659427  0.01788707    -0.14000
C2640       C  0.64734112  0.77667993  0.03798675    -0.11700
C2641       C  0.63226277  0.79660901  0.04780307     0.01600
C2642       C  0.61809647  0.81720234  0.03712060    -0.23900
H2643       H  0.65805130  0.75980087  0.94701186     0.09600
H2644       H  0.65974653  0.75949112  0.98140360     0.13200
H2645       H  0.60607160  0.83244751  0.94869866     0.11900
H2646       H  0.59249299  0.85341483  0.97914184     0.13100
H2647       H  0.59267593  0.85373792  0.01424766     0.12100
H2648       H  0.66016974  0.76048432  0.01147109     0.09200
H2649       H  0.65860034  0.76081395  0.04586242     0.12500
H2650       H  0.60642996  0.83298807  0.04454892     0.14400
C2651       C  0.70422773  0.83108980  0.86816729    -0.01200
C2652       C  0.71480296  0.83400971  0.88550802    -0.09200
C2653       C  0.73339107  0.85223712  0.88609040    -0.18000
C2654       C  0.74214828  0.86768028  0.86917314     0.04400
C2655       C  0.73198813  0.86206605  0.85141111     0.18600
C2656       C  0.71307802  0.84466847  0.85112201    -0.19400
C2657       C  0.74066679  0.87421833  0.83406394    -0.20700
C2658       C  0.75926074  0.89190798  0.83396094    -0.19200
C2659       C  0.76926756  0.89939197  0.85126928     0.20000
C2660       C  0.76062775  0.88826885  0.86918178     0.02100
C2661       C  0.77065844  0.89901607  0.88630438    -0.14000
C2662       C  0.78880355  0.91876725  0.88561269    -0.11700
C2663       C  0.79776280  0.92771832  0.86791465     0.01600
C2664       C  0.78787401  0.91803425  0.85078203    -0.23900
H2665       H  0.70831128  0.82358114  0.89884332     0.09600
H2666       H  0.74058639  0.85373289  0.89997038     0.13200
H2667       H  0.70511574  0.84197842  0.83758207     0.11900
H2668       H  0.73309175  0.86969853  0.82044782     0.13100
H2669       H  0.76568728  0.90048137  0.82026060     0.12100
H2670       H  0.76473080  0.89292912  0.90044672     0.09200
H2671       H  0.79624452  0.92578478  0.89902842     0.12500
H2672       H  0.79468106  0.92513593  0.83703104     0.14400
C2673       C  0.44878188  0.73343183  0.87852315    -0.01200
C2674       C  0.46190141  0.70199347  0.87910343    -0.09200
C2675       C  0.48251403  0.70783708  0.87888991    -0.18000
C2676       C  0.49070056  0.74562072  0.87841812     0.04400
C2677       C  0.47729010  0.77740476  0.87894489     0.18600
C2678       C  0.45661898  0.77108136  0.87863991    -0.19400
C2679       C  0.48457752  0.81535358  0.87966468    -0.20700
C2680       C  0.50494291  0.82253008  0.87964187    -0.19200
C2681       C  0.51856040  0.79201643  0.87829179     0.20000
C2682       C  0.51164231  0.75309657  0.87741741     0.02100
C2683       C  0.52596894  0.72350773  0.87503446    -0.14000
C2684       C  0.54621561  0.73225399  0.87352617    -0.11700
C2685       C  0.55298475  0.77054509  0.87479125     0.01600
C2686       C  0.53906774  0.80027505  0.87742273    -0.23900
H2687       H  0.45619884  0.67266136  0.87921978     0.09600
H2688       H  0.49165087  0.68224167  0.87922721     0.13200
H2689       H  0.44656028  0.79561116  0.87861084     0.11900
H2690       H  0.47443982  0.83970532  0.88028557     0.13100
H2691       H  0.51006988  0.85225151  0.88026414     0.12100
H2692       H  0.52196305  0.69341039  0.87382939     0.09200
H2693       H  0.55670033  0.70876785  0.87155349     0.12500
H2694       H  0.54417258  0.83001188  0.87821132     0.14400
C2695       C  0.62767127  0.78171401  0.79500331    -0.01200
C2696       C  0.64138359  0.80148900  0.78333462    -0.09200
C2697       C  0.64272212  0.79382150  0.76350957    -0.18000
C2698       C  0.63023659  0.76605346  0.75459398     0.04400
C2699       C  0.61598672  0.74692342  0.76640626     0.18600
C2700       C  0.61491430  0.75469968  0.78630489    -0.19400
C2701       C  0.60290846  0.71987626  0.75834173    -0.20700
C2702       C  0.60362577  0.71130314  0.73875770    -0.19200
C2703       C  0.61760163  0.72918724  0.72672852     0.20000
C2704       C  0.63125216  0.75659580  0.73444713     0.02100
C2705       C  0.64531417  0.77307924  0.72164377    -0.14000
C2706       C  0.64547911  0.76338324  0.70200974    -0.11700
C2707       C  0.63168219  0.73698913  0.69438054     0.01600
C2708       C  0.61789369  0.71982232  0.70696372    -0.23900
H2709       H  0.65144152  0.82250665  0.78961123     0.09600
H2710       H  0.65369486  0.81005007  0.75555524     0.13200
H2711       H  0.60413822  0.73933960  0.79508528     0.11900
H2712       H  0.59197719  0.70527442  0.76725189     0.13100
H2713       H  0.59319606  0.69035863  0.73298658     0.12100
H2714       H  0.65638331  0.79356716  0.72636478     0.09200
H2715       H  0.65637395  0.77704927  0.69271604     0.12500
H2716       H  0.60717697  0.69923974  0.70135222     0.14400
C2717       C  0.62878541  0.29296628  0.95265156    -0.01200
C2718       C  0.64505886  0.27724707  0.96251242    -0.09200
C2719       C  0.64546719  0.27628810  0.98262081    -0.18000
C2720       C  0.62945743  0.29098824  0.99367115     0.04400
C2721       C  0.61280315  0.30629346  0.98361544     0.18600
C2722       C  0.61263420  0.30724175  0.96333403    -0.19400
C2723       C  0.59645927  0.32078288  0.99385867    -0.20700
C2724       C  0.59638527  0.32091161  0.01392851    -0.19200
C2725       C  0.61265652  0.30656612  0.02426974     0.20000
C2726       C  0.62940095  0.29121300  0.01429523     0.02100
C2727       C  0.64539982  0.27695348  0.02541980    -0.14000
C2728       C  0.64478651  0.27787279  0.04551600    -0.11700
C2729       C  0.62830817  0.29311612  0.05532622     0.01600
C2730       C  0.61228291  0.30750732  0.04456525    -0.23900
H2731       H  0.65773268  0.26595856  0.95465112     0.09600
H2732       H  0.65859739  0.26393653  0.98903406     0.13200
H2733       H  0.59986767  0.31915092  0.95586209     0.11900
H2734       H  0.58366740  0.33229567  0.98628948     0.13100
H2735       H  0.58353299  0.33249101  0.02141920     0.12100
H2736       H  0.65866500  0.26490852  0.01907630     0.09200
H2737       H  0.65742322  0.26665760  0.05341419     0.12500
H2738       H  0.59941322  0.31924817  0.05197968     0.14400
C2739       C  0.63989958  0.64685162  0.87285694    -0.01200
C2740       C  0.64378382  0.62757532  0.89020402    -0.09200
C2741       C  0.64197883  0.58722939  0.89137156    -0.18000
C2742       C  0.63643576  0.56497552  0.87504256     0.04400
C2743       C  0.63395936  0.58467738  0.85720726     0.18600
C2744       C  0.63542540  0.62511886  0.85635559    -0.19400
C2745       C  0.62962688  0.56403765  0.84035000    -0.20700
C2746       C  0.62748146  0.52407917  0.84080047    -0.19200
C2747       C  0.62894476  0.50391189  0.85823030     0.20000
C2748       C  0.63313675  0.52405503  0.87569033     0.02100
C2749       C  0.63330456  0.50244785  0.89302787    -0.14000
C2750       C  0.62973500  0.46253251  0.89292629    -0.11700
C2751       C  0.62632607  0.44276564  0.87557733     0.01600
C2752       C  0.62604540  0.46364813  0.85828507    -0.23900
H2753       H  0.64732200  0.64388073  0.90311517     0.09600
H2754       H  0.64488090  0.57428062  0.90523431     0.13200
H2755       H  0.63268981  0.63991502  0.84281340     0.11900
H2756       H  0.62789439  0.57892077  0.82669171     0.13100
H2757       H  0.62423060  0.50892625  0.82746819     0.12100
H2758       H  0.63588019  0.51567961  0.90689941     0.09200
H2759       H  0.63021172  0.44683880  0.90644656     0.12500
H2760       H  0.62333223  0.44849893  0.84482404     0.14400
C2761       C  0.62384939  0.94332577  0.87299349    -0.01200
C2762       C  0.62707477  0.96005272  0.89114674    -0.09200
C2763       C  0.63059511  0.99978230  0.89294462    -0.18000
C2764       C  0.63058409  0.02412613  0.87654930     0.04400
C2765       C  0.62607562  0.00711730  0.85834285     0.18600
C2766       C  0.62318559  0.96703663  0.85668944    -0.19400
C2767       C  0.62454805  0.03015066  0.84184200    -0.20700
C2768       C  0.62721122  0.06990108  0.84301415    -0.19200
C2769       C  0.63210906  0.08739104  0.86059295     0.20000
C2770       C  0.63446251  0.06477341  0.87754561     0.02100
C2771       C  0.64055127  0.08396385  0.89465766    -0.14000
C2772       C  0.64280706  0.12430019  0.89513751    -0.11700
C2773       C  0.63892246  0.14639787  0.87867573     0.01600
C2774       C  0.63416292  0.12765457  0.86137014    -0.23900
H2775       H  0.62768860  0.94206205  0.90393341     0.09600
H2776       H  0.63317504  0.01064970  0.90731368     0.13200
H2777       H  0.62048026  0.95415454  0.84265397     0.11900
H2778       H  0.62097348  0.01740194  0.82797392     0.13100
H2779       H  0.62549702  0.08709302  0.83004614     0.12100
H2780       H  0.64345893  0.06861112  0.90789115     0.09200
H2781       H  0.64655058  0.13836935  0.90863240     0.12500
H2782       H  0.63141843  0.14476579  0.84852238     0.14400
C2783       C  0.79437483  0.43445445  0.87534126    -0.01200
C2784       C  0.78536039  0.42692452  0.89318872    -0.09200
C2785       C  0.76727521  0.40669542  0.89419481    -0.18000
C2786       C  0.75752850  0.39372500  0.87724438     0.04400
C2787       C  0.76630388  0.40335691  0.85919301     0.18600
C2788       C  0.78455898  0.42303648  0.85843335    -0.19400
C2789       C  0.75697422  0.39286121  0.84192713    -0.20700
C2790       C  0.73894657  0.37323513  0.84212886    -0.19200
C2791       C  0.73003997  0.36263769  0.85959768     0.20000
C2792       C  0.73937631  0.37187742  0.87743803     0.02100
C2793       C  0.73015021  0.35858627  0.89458262    -0.14000
C2794       C  0.71202096  0.33851753  0.89400560    -0.11700
C2795       C  0.70238225  0.33149049  0.87641633     0.01600
C2796       C  0.71167265  0.34320769  0.85927191    -0.23900
H2797       H  0.79275916  0.43513420  0.90645670     0.09600
H2798       H  0.76132639  0.40145507  0.90840306     0.13200
H2799       H  0.79139599  0.42888542  0.84455034     0.11900
H2800       H  0.76358787  0.40020323  0.82813313     0.13100
H2801       H  0.73197479  0.36606127  0.82849001     0.12100
H2802       H  0.73656356  0.36338903  0.90862809     0.09200
H2803       H  0.70511166  0.32987708  0.90746178     0.12500
H2804       H  0.70441939  0.33759988  0.84557879     0.14400
C2805       C  0.44730817  0.23378865  0.87948659    -0.01200
C2806       C  0.45374409  0.27226188  0.87770766    -0.09200
C2807       C  0.47380318  0.28209297  0.87965276    -0.18000
C2808       C  0.48837283  0.25347689  0.88308278     0.04400
C2809       C  0.48186635  0.21435223  0.88466290     0.18600
C2810       C  0.46147150  0.20499631  0.88328679    -0.19400
C2811       C  0.49581410  0.18470798  0.88714456    -0.20700
C2812       C  0.51608764  0.19288070  0.88746665    -0.19200
C2813       C  0.52294327  0.23104350  0.88591469     0.20000
C2814       C  0.50919360  0.26208603  0.88436764     0.02100
C2815       C  0.51695185  0.30026864  0.88403207    -0.14000
C2816       C  0.53750910  0.30708268  0.88426548    -0.11700
C2817       C  0.55096279  0.27619721  0.88453766     0.01600
C2818       C  0.54352722  0.23828192  0.88566440    -0.23900
H2819       H  0.44313093  0.29515159  0.87489290     0.09600
H2820       H  0.47749100  0.31222991  0.87791297     0.13200
H2821       H  0.45669733  0.17512816  0.88455982     0.11900
H2822       H  0.49103807  0.15484439  0.88835883     0.13100
H2823       H  0.52649975  0.16911593  0.88889526     0.12100
H2824       H  0.50751512  0.32543901  0.88361402     0.09200
H2825       H  0.54290143  0.33660679  0.88360850     0.12500
H2826       H  0.55385271  0.21420976  0.88631289     0.14400
C2827       C  0.62580930  0.22222034  0.70446450    -0.01200
C2828       C  0.61075587  0.20576333  0.71580849    -0.09200
C2829       C  0.60964302  0.21362240  0.73563298    -0.18000
C2830       C  0.62355903  0.23857570  0.74468178     0.04400
C2831       C  0.63904705  0.25422346  0.73311164     0.18600
C2832       C  0.64008556  0.24577640  0.71339876    -0.19400
C2833       C  0.65331454  0.27889429  0.74113696    -0.20700
C2834       C  0.65245137  0.28893024  0.76048692    -0.19200
C2835       C  0.63732252  0.27447968  0.77230627     0.20000
C2836       C  0.62267597  0.24894252  0.76466893     0.02100
C2837       C  0.60781951  0.23515957  0.77738769    -0.14000
C2838       C  0.60774293  0.24587560  0.79685386    -0.11700
C2839       C  0.62231085  0.27087798  0.80428476     0.01600
C2840       C  0.63692991  0.28530062  0.79182056    -0.23900
H2841       H  0.59959265  0.18729095  0.70930620     0.09600
H2842       H  0.59759707  0.20020870  0.74341172     0.13200
H2843       H  0.65192551  0.25855725  0.70488439     0.11900
H2844       H  0.66516864  0.29080007  0.73233545     0.13100
H2845       H  0.66368925  0.30824334  0.76624001     0.12100
H2846       H  0.59616402  0.21586408  0.77277703     0.09200
H2847       H  0.59626708  0.23421064  0.80617196     0.12500
H2848       H  0.64837765  0.30436163  0.79740771     0.14400
loop_ 
_geom_bond_atom_site_label_1 
_geom_bond_atom_site_label_2 
_geom_bond_distance 
_geom_bond_site_symmetry_2 
_ccdc_geom_bond_type 
Zn1           O5   1.960       .  S
Zn1           O6   2.023       .  S
Zn1          O10   2.059       .  S
Zn1          O17   2.035       .  S
Zn2           O5   1.971       .  S
Zn2           O7   2.054       .  S
Zn2           O9   2.009       .  S
Zn2          O13   2.047       .  S
Zn3           O5   1.933       .  S
Zn3           O8   2.004       .  S
Zn3          O11   1.973       .  S
Zn3          O14   2.003       .  S
Zn4           O5   1.951       .  S
Zn4          O12   2.029       .  S
Zn4          O15   2.015       .  S
Zn4          O16   2.018       .  S
O6           C18   1.275       .  A
O7           C19   1.277       .  A
O8           C20   1.272       .  A
O9           C18   1.274       .  A
O10          C20   1.278       .  A
O11          C19   1.270       .  A
O12          C21   1.276       .  A
O13          C22   1.277       .  A
O14          C21   1.271       .  A
O15          C22   1.274       .  A
O16          C23   1.275       .  A
O17          C23   1.277       .  A
C18        C2717   1.481       .  S
C19        C2773   1.472       .  S
C20        C2817   1.484       .  S
C21        C2839   1.482       .  S
C22        C2795   1.484       .  S
C23        C2751   1.478       .  S
Zn24         O28   1.967       .  S
Zn24         O29   2.016       .  S
Zn24         O33   2.041       .  S
Zn24         O40   2.016       .  S
Zn25         O28   1.975       .  S
Zn25         O30   2.046       .  S
Zn25         O32   2.014       .  S
Zn25         O36   2.044       .  S
Zn26         O28   1.946       .  S
Zn26         O31   2.020       .  S
Zn26         O34   1.994       .  S
Zn26         O37   2.024       .  S
Zn27         O28   1.961       .  S
Zn27         O35   2.035       .  S
Zn27         O38   2.011       .  S
Zn27         O39   2.019       .  S
O29          C41   1.273       .  A
O30          C42   1.277       .  A
O31          C43   1.274       .  A
O32          C41   1.273       .  A
O33          C43   1.276       .  A
O34          C42   1.272       .  A
O35          C44   1.275       .  A
O36          C45   1.277       .  A
O37          C44   1.275       .  A
O38          C45   1.273       .  A
O39          C46   1.275       .  A
O40          C46   1.274       .  A
C41        C2629   1.482       .  S
C42        C2739   1.477       .  S
C43        C2685   1.483       .  S
C44        C2695   1.489       .  S
C45        C2651   1.482       .  S
C46        C2761   1.473       .  S
Zn47         O51   1.982       .  S
Zn47         O52   2.049       .  S
Zn47         O56   2.045       .  S
Zn47         O63   2.053       .  S
Zn48         O51   1.935       .  S
Zn48         O53   1.978       .  S
Zn48         O55   1.990       .  S
Zn48         O59   1.988       .  S
Zn49         O51   1.964       .  S
Zn49         O54   1.985       .  S
Zn49         O57   2.047       .  S
Zn49         O60   2.051       .  S
Zn50         O51   1.936       .  S
Zn50         O58   1.981       .  S
Zn50         O61   2.000       .  S
Zn50         O62   1.972       .  S
O52          C64   1.277       .  A
O53          C65   1.270       .  A
O54          C66   1.272       .  A
O55          C64   1.271       .  A
O56          C66   1.277       .  A
O57          C65   1.276       .  A
O58          C67   1.270       .  A
O59          C68   1.270       .  A
O60          C67   1.276       .  A
O61          C68   1.270       .  A
O62          C69   1.269       .  A
O63          C69   1.277       .  A
C64        C2607   1.485       .  S
C65        C2575   1.474       .  S
C66        C2827   1.483       .  S
C67        C2585   1.476       .  S
C68        C2531   1.472       .  S
C69        C2553   1.472       .  S
Zn70         O74   1.945       .  S
Zn70         O75   2.032       .  S
Zn70         O79   1.985       .  S
Zn70         O86   1.987       .  S
Zn71         O74   1.936       .  S
Zn71         O76   1.998       .  S
Zn71         O78   2.020       .  S
Zn71         O82   1.991       .  S
Zn72         O74   1.973       .  S
Zn72         O77   2.039       .  S
Zn72         O80   2.047       .  S
Zn72         O83   2.032       .  S
Zn73         O74   1.965       .  S
Zn73         O81   2.031       .  S
Zn73         O84   2.036       .  S
Zn73         O85   2.038       .  S
O75          C87   1.274       .  A
O76          C88   1.271       .  A
O77          C89   1.277       .  A
O78          C87   1.274       .  A
O79          C89   1.271       .  A
O80          C88   1.277       .  A
O81          C90   1.276       .  A
O82          C91   1.272       .  A
O83          C90   1.275       .  A
O84          C91   1.276       .  A
O85          C92   1.276       .  A
O86          C92   1.270       .  A
C87        C2453   1.481       .  S
C88        C2475   1.477       .  S
C89        C2541   1.475       .  S
C90        C2707   1.491       .  S
C91        C2563   1.476       .  S
C92        C2509   1.468       .  S
Zn93         O97   1.980       .  S
Zn93         O98   2.014       .  S
Zn93        O102   2.056       .  S
Zn93        O109   2.056       .  S
Zn94         O97   1.962       .  S
Zn94         O99   2.021       .  S
Zn94        O101   2.008       .  S
Zn94        O105   2.059       .  S
Zn95         O97   1.955       .  S
Zn95        O100   2.010       .  S
Zn95        O103   2.022       .  S
Zn95        O106   2.032       .  S
Zn96         O97   1.937       .  S
Zn96        O104   2.013       .  S
Zn96        O107   2.010       .  S
Zn96        O108   1.983       .  S
O98         C110   1.274       .  A
O99         C111   1.276       .  A
O100        C112   1.272       .  A
O101        C110   1.273       .  A
O102        C112   1.277       .  A
O103        C111   1.276       .  A
O104        C113   1.272       .  A
O105        C114   1.277       .  A
O106        C113   1.274       .  A
O107        C114   1.273       .  A
O108        C115   1.271       .  A
O109        C115   1.278       .  A
C110       C2343   1.480       .  S
C111       C2377   1.479       .  S
C112       C2409   1.482       .  S
C113       C2431   1.473       .  S
C114       C2805   1.488       .  S
C115       C2387   1.476       .  S
Zn116       O120   1.949       .  S
Zn116       O121   1.989       .  S
Zn116       O125   2.016       .  S
Zn116       O132   2.020       .  S
Zn117       O120   1.973       .  S
Zn117       O122   2.052       .  S
Zn117       O124   2.049       .  S
Zn117       O128   2.022       .  S
Zn118       O120   1.950       .  S
Zn118       O123   2.014       .  S
Zn118       O126   2.004       .  S
Zn118       O129   2.010       .  S
Zn119       O120   1.961       .  S
Zn119       O127   2.030       .  S
Zn119       O130   2.021       .  S
Zn119       O131   2.045       .  S
O121        C133   1.271       .  A
O122        C134   1.278       .  A
O123        C135   1.274       .  A
O124        C133   1.277       .  A
O125        C135   1.272       .  A
O126        C134   1.272       .  A
O127        C136   1.275       .  A
O128        C137   1.275       .  A
O129        C136   1.273       .  A
O130        C137   1.275       .  A
O131        C138   1.278       .  A
O132        C138   1.275       .  A
C133       C2365   1.470       .  S
C134       C2311   1.488       .  S
C135       C2321   1.483       .  S
C136       C2399   1.476       .  S
C137       C2277   1.485       .  S
C138       C2673   1.484       .  S
Zn139       O143   1.930       .  S
Zn139       O144   1.984       .  S
Zn139       O148   1.960       .  S
Zn139       O155   1.999       .  S
Zn140       O143   1.971       .  S
Zn140       O145   2.043       .  S
Zn140       O147   2.053       .  S
Zn140       O151   2.031       .  S
Zn141       O143   1.976       .  S
Zn141       O146   2.055       .  S
Zn141       O149   2.031       .  S
Zn141       O152   2.055       .  S
Zn142       O143   1.951       .  S
Zn142       O150   1.986       .  S
Zn142       O153   1.992       .  S
Zn142       O154   2.041       .  S
O144        C156   1.270       .  A
O145        C157   1.277       .  A
O146        C158   1.279       .  A
O147        C156   1.278       .  A
O148        C158   1.269       .  A
O149        C157   1.276       .  A
O150        C159   1.270       .  A
O151        C160   1.277       .  A
O152        C159   1.278       .  A
O153        C160   1.274       .  A
O154        C161   1.274       .  A
O155        C161   1.270       .  A
C156       C2619   1.485       .  S
C157       C2201   1.493       .  S
C158       C2233   1.478       .  S
C159       C2255   1.486       .  S
C160       C2223   1.480       .  S
C161       C2443   1.481       .  S
Zn162       O166   1.913       .  S
Zn162       O167   1.952       .  S
Zn162       O171   1.973       .  S
Zn162       O178   1.973       .  S
Zn163       O166   1.976       .  S
Zn163       O168   2.036       .  S
Zn163       O170   2.054       .  S
Zn163       O174   2.049       .  S
Zn164       O166   1.965       .  S
Zn164       O169   2.074       .  S
Zn164       O172   2.009       .  S
Zn164       O175   2.052       .  S
Zn165       O166   1.941       .  S
Zn165       O173   1.969       .  S
Zn165       O176   1.987       .  S
Zn165       O177   2.018       .  S
O167        C179   1.267       .  A
O168        C180   1.277       .  A
O169        C181   1.279       .  A
O170        C179   1.278       .  A
O171        C181   1.268       .  A
O172        C180   1.276       .  A
O173        C182   1.269       .  A
O174        C183   1.277       .  A
O175        C182   1.279       .  A
O176        C183   1.271       .  A
O177        C184   1.271       .  A
O178        C184   1.268       .  A
C179       C2245   1.479       .  S
C180       C2333   1.483       .  S
C181       C2167   1.490       .  S
C182       C2211   1.479       .  S
C183       C2497   1.477       .  S
C184       C2157   1.475       .  S
Zn185       O189   1.944       .  S
Zn185       O190   2.024       .  S
Zn185       O194   1.984   1_545  S
Zn185       O201   1.996       .  S
Zn186       O189   1.937       .  S
Zn186       O191   2.000       .  S
Zn186       O193   2.014       .  S
Zn186       O197   1.978       .  S
Zn187       O189   1.964       .  S
Zn187       O192   2.039   1_545  S
Zn187       O195   2.038       .  S
Zn187       O198   1.998       .  S
Zn188       O189   1.979       .  S
Zn188       O196   2.040       .  S
Zn188       O199   2.050       .  S
Zn188       O200   2.037       .  S
O190        C202   1.272       .  A
O191        C203   1.273       .  A
O192        C204   1.276       .  A
O193        C202   1.271       .  A
O194        C204   1.271       .  A
O195        C203   1.276       .  A
O196        C205   1.276       .  A
O197        C206   1.270       .  A
O198        C205   1.272       .  A
O199        C206   1.277       .  A
O200        C207   1.277       .  A
O201        C207   1.273       .  A
C202       C2035   1.473       .  S
C203       C2597   1.476       .  S
C204       C2069   1.478       .  S
C205       C2135   1.485       .  S
C206       C2079   1.474       .  S
C207       C2101   1.482       .  S
Zn208       O212   1.930       .  S
Zn208       O213   1.993       .  S
Zn208       O217   1.988       .  S
Zn208       O224   2.005       .  S
Zn209       O212   1.970       .  S
Zn209       O214   2.019       .  S
Zn209       O216   2.039       .  S
Zn209       O220   2.058       .  S
Zn210       O212   1.975       .  S
Zn210       O215   2.055       .  S
Zn210       O218   1.997       .  S
Zn210       O221   2.042       .  S
Zn211       O212   1.937       .  S
Zn211       O219   1.984       .  S
Zn211       O222   1.987       .  S
Zn211       O223   2.012       .  S
O213        C225   1.271       .  A
O214        C226   1.276       .  A
O215        C227   1.277       .  A
O216        C225   1.275       .  A
O217        C227   1.271       .  A
O218        C226   1.272       .  A
O219        C228   1.270       .  A
O220        C229   1.278       .  A
O221        C228   1.275       .  A
O222        C229   1.271       .  A
O223        C230   1.272       .  A
O224        C230   1.272       .  A
C225       C2057   1.471       .  S
C226       C2013   1.478       .  S
C227       C2487   1.482       .  S
C228       C2091   1.468       .  S
C229       C1991   1.479       .  S
C230       C1969   1.479       .  S
Zn231       O235   1.970       .  S
Zn231       O236   2.060       .  S
Zn231       O240   2.052       .  S
Zn231       O247   2.008       .  S
Zn232       O235   1.950       .  S
Zn232       O237   2.020       .  S
Zn232       O239   1.989       .  S
Zn232       O243   1.999       .  S
Zn233       O235   1.936       .  S
Zn233       O238   1.979       .  S
Zn233       O241   1.983       .  S
Zn233       O244   2.010       .  S
Zn234       O235   1.965       .  S
Zn234       O242   2.046       .  S
Zn234       O245   2.027       .  S
Zn234       O246   2.019       .  S
O236        C248   1.277       .  A
O237        C249   1.273       .  A
O238        C250   1.270       .  A
O239        C248   1.270       .  A
O240        C250   1.278       .  A
O241        C249   1.270       .  A
O242        C251   1.276       .  A
O243        C252   1.273       .  A
O244        C251   1.273       .  A
O245        C252   1.276       .  A
O246        C253   1.275       .  A
O247        C253   1.274       .  A
C248       C2783   1.482       .  S
C249       C2025   1.476       .  S
C250       C1903   1.474       .  S
C251       C1947   1.487       .  S
C252       C1925   1.473       .  S
C253       C1881   1.481       .  S
Zn254       O258   1.931   1_545  S
Zn254       O259   2.013       .  S
Zn254       O263   1.991       .  S
Zn254       O270   1.974       .  S
Zn255       O258   1.956       .  S
Zn255       O260   2.019       .  S
Zn255       O262   2.023       .  S
Zn255       O266   2.017       .  S
Zn256       O258   1.953       .  S
Zn256       O261   2.033       .  S
Zn256       O264   2.004       .  S
Zn256       O267   1.997       .  S
Zn257       O258   1.974       .  S
Zn257       O265   2.028       .  S
Zn257       O268   2.035       .  S
Zn257       O269   2.056   1_565  S
O259        C271   1.273   1_545  A
O260        C272   1.274       .  A
O261        C273   1.274       .  A
O262        C271   1.275       .  A
O263        C273   1.270   1_545  A
O264        C272   1.273       .  A
O265        C274   1.275       .  A
O266        C275   1.274       .  A
O267        C274   1.272       .  A
O268        C275   1.277       .  A
O269        C276   1.278       .  A
O270        C276   1.270       .  A
C271       C2123   1.482       .  S
C272       C1915   1.471       .  S
C273       C1859   1.474       .  S
C274       C1837   1.481       .  S
C275       C2663   1.479       .  S
C276       C1937   1.473       .  S
Zn277       O281   1.956       .  S
Zn277       O282   2.019       .  S
Zn277       O286   2.047       .  S
Zn277       O293   2.016       .  S
Zn278       O281   1.975       .  S
Zn278       O283   2.074   1_545  S
Zn278       O285   2.023       .  S
Zn278       O289   2.072       .  S
Zn279       O281   1.925       .  S
Zn279       O284   1.981       .  S
Zn279       O287   1.962   1_545  S
Zn279       O290   1.999       .  S
Zn280       O281   1.941       .  S
Zn280       O288   2.014       .  S
Zn280       O291   1.990       .  S
Zn280       O292   2.001       .  S
O282        C294   1.275       .  A
O283        C295   1.281       .  A
O284        C296   1.269       .  A
O285        C294   1.276       .  A
O286        C296   1.276       .  A
O287        C295   1.269       .  A
O288        C297   1.272       .  A
O289        C298   1.280       .  A
O290        C297   1.270       .  A
O291        C298   1.271       .  A
O292        C299   1.273       .  A
O293        C299   1.275       .  A
C294       C1749   1.483       .  S
C295       C1783   1.482       .  S
C296       C1871   1.476       .  S
C297       C1827   1.468       .  S
C298       C2421   1.488       .  S
C299       C1793   1.477       .  S
Zn300       O304   1.938       .  S
Zn300       O305   1.986       .  S
Zn300       O309   1.997       .  S
Zn300       O316   1.963       .  S
Zn301       O304   1.970       .  S
Zn301       O306   2.036       .  S
Zn301       O308   2.055       .  S
Zn301       O312   2.008       .  S
Zn302       O304   1.941       .  S
Zn302       O307   1.998       .  S
Zn302       O310   1.978       .  S
Zn302       O313   2.001       .  S
Zn303       O304   1.978       .  S
Zn303       O311   2.060       .  S
Zn303       O314   2.050       .  S
Zn303       O315   2.069       .  S
O305        C317   1.269       .  A
O306        C318   1.276       .  A
O307        C319   1.270       .  A
O308        C317   1.277       .  A
O309        C319   1.269       .  A
O310        C318   1.271       .  A
O311        C320   1.279       .  A
O312        C321   1.274       .  A
O313        C320   1.272       .  A
O314        C321   1.278       .  A
O315        C322   1.281       .  A
O316        C322   1.269       .  A
C317       C2299   1.486       .  S
C318       C1805   1.469       .  S
C319       C1705   1.475       .  S
C320       C1959   1.488       .  S
C321       C1727   1.482       .  S
C322       C1771   1.484       .  S
Zn323       O327   1.944       .  S
Zn323       O328   2.017       .  S
Zn323       O332   1.967       .  S
Zn323       O339   2.002       .  S
Zn324       O327   1.936       .  S
Zn324       O329   1.997       .  S
Zn324       O331   2.003       .  S
Zn324       O335   1.976       .  S
Zn325       O327   1.972       .  S
Zn325       O330   2.034       .  S
Zn325       O333   2.050       .  S
Zn325       O336   2.019       .  S
Zn326       O327   1.970       .  S
Zn326       O334   2.039       .  S
Zn326       O337   2.051       .  S
Zn326       O338   2.040       .  S
O328        C340   1.272       .  A
O329        C341   1.272       .  A
O330        C342   1.276       .  A
O331        C340   1.271       .  A
O332        C342   1.269       .  A
O333        C341   1.277       .  A
O334        C343   1.277       .  A
O335        C344   1.270       .  A
O336        C343   1.275       .  A
O337        C344   1.279       .  A
O338        C345   1.276       .  A
O339        C345   1.271       .  A
C340       C1639   1.478       .  S
C341       C2267   1.486       .  S
C342       C1673   1.473       .  S
C343       C1739   1.482       .  S
C344       C1683   1.482       .  S
C345       C2003   1.476       .  S
Zn346       O350   1.948       .  S
Zn346       O351   1.995       .  S
Zn346       O355   1.993       .  S
Zn346       O362   2.019       .  S
Zn347       O350   1.975       .  S
Zn347       O352   2.021       .  S
Zn347       O354   2.059       .  S
Zn347       O358   2.057   1_565  S
Zn348       O350   1.965       .  S
Zn348       O353   2.016       .  S
Zn348       O356   2.013       .  S
Zn348       O359   2.038       .  S
Zn349       O350   1.928       .  S
Zn349       O357   1.980       .  S
Zn349       O360   1.966   1_565  S
Zn349       O361   1.990       .  S
O351        C363   1.271       .  A
O352        C364   1.275       .  A
O353        C365   1.276       .  A
O354        C363   1.279       .  A
O355        C365   1.272       .  A
O356        C364   1.273       .  A
O357        C366   1.269       .  A
O358        C367   1.279       .  A
O359        C366   1.274       .  A
O360        C367   1.269       .  A
O361        C368   1.269       .  A
O362        C368   1.272       .  A
C363       C2179   1.490       .  S
C364       C1617   1.473       .  S
C365       C1661   1.476       .  S
C366       C2113   1.482       .  S
C367       C1695   1.479       .  S
C368       C1815   1.469       .  S
Zn369       O373   1.938       .  S
Zn369       O374   2.000       .  S
Zn369       O378   1.970       .  S
Zn369       O385   2.005       .  S
Zn370       O373   1.948       .  S
Zn370       O375   2.009       .  S
Zn370       O377   2.019       .  S
Zn370       O381   2.010       .  S
Zn371       O373   1.982       .  S
Zn371       O376   2.063       .  S
Zn371       O379   2.074       .  S
Zn371       O382   2.009       .  S
Zn372       O373   1.961       .  S
Zn372       O380   2.008       .  S
Zn372       O383   2.016       .  S
Zn372       O384   2.050       .  S
O374        C386   1.271       .  A
O375        C387   1.273       .  A
O376        C388   1.279       .  A
O377        C386   1.274       .  A
O378        C388   1.270       .  A
O379        C387   1.279       .  A
O380        C389   1.274       .  A
O381        C390   1.274       .  A
O382        C389   1.274       .  A
O383        C390   1.274       .  A
O384        C391   1.276       .  A
O385        C391   1.270       .  A
C386       C1607   1.475       .  S
C387       C1551   1.488       .  S
C388       C1541   1.476       .  S
C389       C2355   1.478       .  S
C390       C1507   1.476       .  S
C391       C1573   1.477       .  S
Zn392       O396   1.957       .  S
Zn392       O397   2.017       .  S
Zn392       O401   2.010       .  S
Zn392       O408   2.038       .  S
Zn393       O396   1.970       .  S
Zn393       O398   2.021       .  S
Zn393       O400   2.025       .  S
Zn393       O404   2.050       .  S
Zn394       O396   1.976       .  S
Zn394       O399   2.053       .  S
Zn394       O402   2.025       .  S
Zn394       O405   2.049       .  S
Zn395       O396   1.939       .  S
Zn395       O403   1.975       .  S
Zn395       O406   1.990       .  S
Zn395       O407   2.003       .  S
O397        C409   1.275       .  A
O398        C410   1.274       .  A
O399        C411   1.279       .  A
O400        C409   1.275       .  A
O401        C411   1.274       .  A
O402        C410   1.275       .  A
O403        C412   1.269       .  A
O404        C413   1.277       .  A
O405        C412   1.276       .  A
O406        C413   1.271       .  A
O407        C414   1.271       .  A
O408        C414   1.276       .  A
C409       C1529   1.474       .  S
C410       C2289   1.486       .  S
C411       C1453   1.488       .  S
C412       C1519   1.469       .  S
C413       C1463   1.480       .  S
C414       C1485   1.486       .  S
Zn415       O419   1.938       .  S
Zn415       O420   1.999       .  S
Zn415       O424   1.994       .  S
Zn415       O431   1.967       .  S
Zn416       O419   1.968       .  S
Zn416       O421   2.029       .  S
Zn416       O423   2.059       .  S
Zn416       O427   2.027       .  S
Zn417       O419   1.954       .  S
Zn417       O422   2.032       .  S
Zn417       O425   1.998       .  S
Zn417       O428   2.000       .  S
Zn418       O419   1.984       .  S
Zn418       O426   2.072       .  S
Zn418       O429   2.045       .  S
Zn418       O430   2.054       .  S
O420        C432   1.271       .  A
O421        C433   1.277       .  A
O422        C434   1.273       .  A
O423        C432   1.277       .  A
O424        C434   1.268       .  A
O425        C433   1.274       .  A
O426        C435   1.280       .  A
O427        C436   1.276       .  A
O428        C435   1.271       .  A
O429        C436   1.278       .  A
O430        C437   1.279       .  A
O431        C437   1.270       .  A
C432       C1431   1.490       .  S
C433       C1353   1.481       .  S
C434       C1595   1.467       .  S
C435       C1397   1.494       .  S
C436       C2189   1.492       .  S
C437       C1375   1.474       .  S
Zn438       O442   1.932       .  S
Zn438       O443   1.993       .  S
Zn438       O447   1.975       .  S
Zn438       O454   1.994       .  S
Zn439       O442   1.958       .  S
Zn439       O444   2.000       .  S
Zn439       O446   2.065       .  S
Zn439       O450   2.047       .  S
Zn440       O442   1.975       .  S
Zn440       O445   2.044       .  S
Zn440       O448   2.045       .  S
Zn440       O451   2.041       .  S
Zn441       O442   1.941       .  S
Zn441       O449   1.984       .  S
Zn441       O452   1.975       .  S
Zn441       O453   2.005       .  S
O443        C455   1.270       .  A
O444        C456   1.273       .  A
O445        C457   1.278       .  A
O446        C455   1.278       .  A
O447        C457   1.270       .  A
O448        C456   1.277       .  A
O449        C458   1.270       .  A
O450        C459   1.279       .  A
O451        C458   1.276       .  A
O452        C459   1.270       .  A
O453        C460   1.270       .  A
O454        C460   1.271       .  A
C455       C1309   1.478       .  S
C456       C1497   1.485       .  S
C457       C1387   1.479       .  S
C458       C1331   1.481       .  S
C459       C1365   1.479       .  S
C460       C2145   1.476       .  S
Zn461       O465   1.971       .  S
Zn461       O466   2.032       .  S
Zn461       O470   2.050       .  S
Zn461       O477   2.032       .  S
Zn462       O465   1.956       .  S
Zn462       O467   2.028       .  S
Zn462       O469   2.013       .  S
Zn462       O473   1.995       .  S
Zn463       O465   1.938       .  S
Zn463       O468   1.995       .  S
Zn463       O471   2.004       .  S
Zn463       O474   1.982       .  S
Zn464       O465   1.974       .  S
Zn464       O472   2.049       .  S
Zn464       O475   2.045       .  S
Zn464       O476   2.001       .  S
O466        C478   1.277       .  A
O467        C479   1.274       .  A
O468        C480   1.272       .  A
O469        C478   1.274       .  A
O470        C480   1.277       .  A
O471        C479   1.272       .  A
O472        C481   1.276       .  A
O473        C482   1.271       .  A
O474        C481   1.270       .  A
O475        C482   1.277       .  A
O476        C483   1.273       .  A
O477        C483   1.275       .  A
C478       C1221   1.486       .  S
C479       C1287   1.481       .  S
C480       C1585   1.484       .  S
C481       C1255   1.470       .  S
C482       C1265   1.481       .  S
C483       C2729   1.482       .  S
Zn484       O488   1.969       .  S
Zn484       O489   2.048       .  S
Zn484       O493   2.005       .  S
Zn484       O500   2.059       .  S
Zn485       O488   1.942       .  S
Zn485       O490   2.003       .  S
Zn485       O492   2.001       .  S
Zn485       O496   1.998       .  S
Zn486       O488   1.960       .  S
Zn486       O491   2.010       .  S
Zn486       O494   2.023       .  S
Zn486       O497   2.048       .  S
Zn487       O488   1.937       .  S
Zn487       O495   1.996       .  S
Zn487       O498   2.000       .  S
Zn487       O499   1.984       .  S
O489        C501   1.276       .  A
O490        C502   1.273       .  A
O491        C503   1.275       .  A
O492        C501   1.272       .  A
O493        C503   1.274       .  A
O494        C502   1.274       .  A
O495        C504   1.271       .  A
O496        C505   1.271       .  A
O497        C504   1.276       .  A
O498        C505   1.270       .  A
O499        C506   1.269       .  A
O500        C506   1.277       .  A
C501       C1177   1.482       .  S
C502       C1243   1.477       .  S
C503       C2641   1.478       .  S
C504       C1475   1.477       .  S
C505       C1199   1.454       .  S
C506       C1233   1.468       .  S
Zn507       O511   1.974       .  S
Zn507       O512   2.049       .  S
Zn507       O516   2.009       .  S
Zn507       O523   2.068       .  S
Zn508       O511   1.940       .  S
Zn508       O513   2.008       .  S
Zn508       O515   1.980       .  S
Zn508       O519   1.994       .  S
Zn509       O511   1.969       .  S
Zn509       O514   2.029       .  S
Zn509       O517   2.054       .  S
Zn509       O520   2.041       .  S
Zn510       O511   1.936       .  S
Zn510       O518   1.967       .  S
Zn510       O521   1.990       .  S
Zn510       O522   1.987       .  S
O512        C524   1.279       .  A
O513        C525   1.272       .  A
O514        C526   1.277       .  A
O515        C524   1.271       .  A
O516        C526   1.274       .  A
O517        C525   1.277       .  A
O518        C527   1.269       .  A
O519        C528   1.271       .  A
O520        C527   1.277       .  A
O521        C528   1.270       .  A
O522        C529   1.270       .  A
O523        C529   1.278       .  A
C524       C1133   1.481       .  S
C525       C1419   1.491       .  S
C526       C1299   1.483       .  S
C527       C1111   1.478       .  S
C528       C2519   1.471       .  S
C529       C1167   1.489       .  S
Zn530       O534   1.924       .  S
Zn530       O535   1.977       .  S
Zn530       O539   1.960       .  S
Zn530       O546   1.981       .  S
Zn531       O534   1.945       .  S
Zn531       O536   1.992       .  S
Zn531       O538   2.014       .  S
Zn531       O542   1.990       .  S
Zn532       O534   1.971       .  S
Zn532       O537   2.050       .  S
Zn532       O540   2.045       .  S
Zn532       O543   2.020       .  S
Zn533       O534   1.961       .  S
Zn533       O541   2.013       .  S
Zn533       O544   2.029       .  S
Zn533       O545   2.036       .  S
O535        C547   1.268       .  A
O536        C548   1.271       .  A
O537        C549   1.277       .  A
O538        C547   1.273       .  A
O539        C549   1.268       .  A
O540        C548   1.277       .  A
O541        C550   1.274       .  A
O542        C551   1.272       .  A
O543        C550   1.275       .  A
O544        C551   1.276       .  A
O545        C552   1.275       .  A
O546        C552   1.269       .  A
C547       C1211   1.472       .  S
C548       C1089   1.485       .  S
C549       C1123   1.476       .  S
C550       C2465   1.472       .  S
C551       C1145   1.479       .  S
C552       C1343   1.481       .  S
Zn553       O557   1.947       .  S
Zn553       O558   2.017       .  S
Zn553       O562   1.992       .  S
Zn553       O569   1.984       .  S
Zn554       O557   1.927       .  S
Zn554       O559   1.988       .  S
Zn554       O561   1.996       .  S
Zn554       O565   1.963   1_545  S
Zn555       O557   1.960       .  S
Zn555       O560   2.015       .  S
Zn555       O563   2.053       .  S
Zn555       O566   2.018       .  S
Zn556       O557   1.978       .  S
Zn556       O564   2.032       .  S
Zn556       O567   2.059   1_545  S
Zn556       O568   2.065       .  S
O558        C570   1.271       .  A
O559        C571   1.270       .  A
O560        C572   1.275       .  A
O561        C570   1.270       .  A
O562        C572   1.272       .  A
O563        C571   1.276       .  A
O564        C573   1.276       .  A
O565        C574   1.269       .  A
O566        C573   1.275       .  A
O567        C574   1.279       .  A
O568        C575   1.279       .  A
O569        C575   1.270       .  A
C570       C1067   1.470       .  S
C571       C1045   1.486       .  S
C572       C1023   1.476       .  S
C573       C2047   1.483       .  S
C574       C1001   1.481       .  S
C575       C1155   1.489       .  S
Zn576       O580   1.932       .  S
Zn576       O581   1.995       .  S
Zn576       O585   1.983       .  S
Zn576       O592   1.982       .  S
Zn577       O580   1.945       .  S
Zn577       O582   1.979       .  S
Zn577       O584   2.029       .  S
Zn577       O588   2.003       .  S
Zn578       O580   1.966       .  S
Zn578       O583   2.044       .  S
Zn578       O586   2.023       .  S
Zn578       O589   2.014       .  S
Zn579       O580   1.966       .  S
Zn579       O587   2.032       .  S
Zn579       O590   2.032       .  S
Zn579       O591   2.033       .  S
O581        C593   1.271       .  A
O582        C594   1.271       .  A
O583        C595   1.277       .  A
O584        C593   1.273       .  A
O585        C595   1.270       .  A
O586        C594   1.275       .  A
O587        C596   1.276       .  A
O588        C597   1.272       .  A
O589        C596   1.274       .  A
O590        C597   1.275       .  A
O591        C598   1.276       .  A
O592        C598   1.271       .  A
C593       C1981   1.481       .  S
C594       C1035   1.474       .  S
C595       C1101   1.483       .  S
C596        C991   1.486       .  S
C597        C957   1.474       .  S
C598       C1013   1.478       .  S
Zn599       O603   1.953       .  S
Zn599       O604   2.023       .  S
Zn599       O608   2.010       .  S
Zn599       O615   2.006       .  S
Zn600       O603   1.944       .  S
Zn600       O605   2.007       .  S
Zn600       O607   2.017       .  S
Zn600       O611   1.988       .  S
Zn601       O603   1.969       .  S
Zn601       O606   2.023       .  S
Zn601       O609   2.043       .  S
Zn601       O612   2.028       .  S
Zn602       O603   1.967       .  S
Zn602       O610   2.004       .  S
Zn602       O613   2.040       .  S
Zn602       O614   2.040       .  S
O604        C616   1.274       .  A
O605        C617   1.274       .  A
O606        C618   1.275       .  A
O607        C616   1.273       .  A
O608        C618   1.274       .  A
O609        C617   1.277       .  A
O610        C619   1.273       .  A
O611        C620   1.270       .  A
O612        C619   1.274       .  A
O613        C620   1.276       .  A
O614        C621   1.276       .  A
O615        C621   1.272       .  A
C616        C979   1.486       .  S
C617        C935   1.486       .  S
C618        C913   1.474       .  S
C619       C1893   1.482       .  S
C620        C891   1.466       .  S
C621       C1277   1.477       .  S
Zn622       O626   1.954       .  S
Zn622       O627   2.011       .  S
Zn622       O631   1.989       .  S
Zn622       O638   2.026       .  S
Zn623       O626   1.962       .  S
Zn623       O628   2.004       .  S
Zn623       O630   2.022       .  S
Zn623       O634   2.042       .  S
Zn624       O626   1.980       .  S
Zn624       O629   2.058       .  S
Zn624       O632   2.021       .  S
Zn624       O635   2.058   1_565  S
Zn625       O626   1.933       .  S
Zn625       O633   1.978   1_565  S
Zn625       O636   1.990       .  S
Zn625       O637   1.981       .  S
O627        C639   1.274       .  A
O628        C640   1.273       .  A
O629        C641   1.277       .  A
O630        C639   1.275       .  A
O631        C641   1.271       .  A
O632        C640   1.275       .  A
O633        C642   1.270       .  A
O634        C643   1.275       .  A
O635        C642   1.279       .  A
O636        C643   1.270       .  A
O637        C644   1.268       .  A
O638        C644   1.272       .  A
C639        C903   1.479       .  S
C640       C1849   1.480       .  S
C641       C1189   1.476       .  S
C642        C925   1.474       .  S
C643        C881   1.476       .  S
C644       C1079   1.468       .  S
Zn645       O649   1.953       .  S
Zn645       O650   2.006       .  S
Zn645       O654   2.034       .  S
Zn645       O661   1.994       .  S
Zn646       O649   1.975       .  S
Zn646       O651   2.050   1_545  S
Zn646       O653   2.063       .  S
Zn646       O657   2.032       .  S
Zn647       O649   1.937       .  S
Zn647       O652   1.994       .  S
Zn647       O655   1.974   1_545  S
Zn647       O658   2.001       .  S
Zn648       O649   1.961       .  S
Zn648       O656   2.037       .  S
Zn648       O659   2.007       .  S
Zn648       O660   2.020       .  S
O650        C662   1.273       .  A
O651        C663   1.279       .  A
O652        C664   1.270       .  A
O653        C662   1.278       .  A
O654        C664   1.274       .  A
O655        C663   1.271       .  A
O656        C665   1.274       .  A
O657        C666   1.276       .  A
O658        C665   1.271       .  A
O659        C666   1.273       .  A
O660        C667   1.276       .  A
O661        C667   1.273       .  A
C662       C1563   1.486       .  S
C663        C803   1.479       .  S
C664        C847   1.483       .  S
C665        C869   1.473       .  S
C666       C1761   1.483       .  S
C667        C837   1.478       .  S
Zn668       O672   1.936       .  S
Zn668       O673   1.998       .  S
Zn668       O677   1.985       .  S
Zn668       O684   1.976       .  S
Zn669       O672   1.938       .  S
Zn669       O674   1.971       .  S
Zn669       O676   2.000       .  S
Zn669       O680   2.009       .  S
Zn670       O672   1.972       .  S
Zn670       O675   2.061       .  S
Zn670       O678   2.050       .  S
Zn670       O681   2.010       .  S
Zn671       O672   1.964       .  S
Zn671       O679   2.030       .  S
Zn671       O682   2.044       .  S
Zn671       O683   2.037       .  S
O673        C685   1.271       .  A
O674        C686   1.271       .  A
O675        C687   1.277       .  A
O676        C685   1.271       .  A
O677        C687   1.269       .  A
O678        C686   1.278       .  A
O679        C688   1.276       .  A
O680        C689   1.272       .  A
O681        C688   1.274       .  A
O682        C689   1.276       .  A
O683        C690   1.277       .  A
O684        C690   1.270       .  A
C685       C1717   1.475       .  S
C686        C825   1.478       .  S
C687       C1441   1.487       .  S
C688        C793   1.472       .  S
C689        C947   1.486       .  S
C690        C815   1.479       .  S
Zn691       O695   1.977       .  S
Zn691       O696   2.023       .  S
Zn691       O700   2.062       .  S
Zn691       O707   2.058       .  S
Zn692       O695   1.968       .  S
Zn692       O697   2.044       .  S
Zn692       O699   2.017       .  S
Zn692       O703   2.036       .  S
Zn693       O695   1.932       .  S
Zn693       O698   2.006       .  S
Zn693       O701   1.992       .  S
Zn693       O704   2.000       .  S
Zn694       O695   1.945       .  S
Zn694       O702   2.027       .  S
Zn694       O705   1.997       .  S
Zn694       O706   1.976       .  S
O696        C708   1.275       .  A
O697        C709   1.276       .  A
O698        C710   1.273       .  A
O699        C708   1.275       .  A
O700        C710   1.279       .  A
O701        C709   1.271       .  A
O702        C711   1.274       .  A
O703        C712   1.275       .  A
O704        C711   1.272       .  A
O705        C712   1.271       .  A
O706        C713   1.270       .  A
O707        C713   1.278       .  A
C708        C781   1.482       .  S
C709        C759   1.473       .  S
C710       C1409   1.492       .  S
C711       C1651   1.480       .  S
C712        C969   1.475       .  S
C713        C749   1.475       .  S
Zn714       O718   1.947       .  S
Zn714       O719   1.996       .  S
Zn714       O723   1.996   1_565  S
Zn714       O730   2.018       .  S
Zn715       O718   1.980       .  S
Zn715       O720   2.031       .  S
Zn715       O722   2.049       .  S
Zn715       O726   2.052       .  S
Zn716       O718   1.979       .  S
Zn716       O721   2.051   1_565  S
Zn716       O724   2.005       .  S
Zn716       O727   2.080       .  S
Zn717       O718   1.934       .  S
Zn717       O725   1.976       .  S
Zn717       O728   1.980       .  S
Zn717       O729   2.006       .  S
O719        C731   1.271       .  A
O720        C732   1.277       .  A
O721        C733   1.279       .  A
O722        C731   1.277       .  A
O723        C733   1.273       .  A
O724        C732   1.273       .  A
O725        C734   1.269       .  A
O726        C735   1.277       .  A
O727        C734   1.279       .  A
O728        C735   1.270       .  A
O729        C736   1.271       .  A
O730        C736   1.272       .  A
C731       C1057   1.486       .  S
C732        C859   1.483       .  S
C733        C771   1.480       .  S
C734       C1321   1.487       .  S
C735        C737   1.476       .  S
C736       C1629   1.472       .  S
C737        C738   1.401       .  A
C737        C742   1.398       .  A
C738        C739   1.392       .  A
C738        H751   1.084       .  S
C739        C740   1.411       .  A
C739        H752   1.078       .  S
C740        C746   1.430       .  A
C740        C741   1.426       .  A
C741        C743   1.398       .  A
C741        C742   1.409       .  A
C742        H753   1.085       .  S
C743        C744   1.390       .  A
C743        H754   1.084       .  S
C744        C745   1.400       .  A
C744        H755   1.084       .  S
C745        C746   1.419       .  A
C745        C750   1.400       .  A
C746        C747   1.420       .  A
C747        C748   1.400       .  A
C747        H756   1.078       .  S
C748        C749   1.396       .  A
C748        H757   1.083       .  S
C749        C750   1.402       .  A
C750        H758   1.085       .  S
C759        C760   1.399       .  A
C759        C764   1.400       .  A
C760        C761   1.394       .  A
C760        H773   1.084       .  S
C761        C762   1.414       .  A
C761        H774   1.079       .  S
C762        C768   1.430       .  A
C762        C763   1.424       .  A
C763        C765   1.400       .  A
C763        C764   1.408       .  A
C764        H775   1.085       .  S
C765        C766   1.392       .  A
C765        H776   1.084       .  S
C766        C767   1.400       .  A
C766        H777   1.084       .  S
C767        C768   1.423       .  A
C767        C772   1.409       .  A
C768        C769   1.414       .  A
C769        C770   1.395       .  A
C769        H778   1.079       .  S
C770        C771   1.400       .  A
C770        H779   1.083       .  S
C771        C772   1.402       .  A
C772        H780   1.085       .  S
C781        C782   1.402       .  A
C781        C786   1.402       .  A
C782        C783   1.397       .  A
C782        H795   1.083       .  S
C783        C784   1.414       .  A
C783        H796   1.078       .  S
C784        C790   1.429       .  A
C784        C785   1.422       .  A
C785        C787   1.399       .  A
C785        C786   1.405       .  A
C786        H797   1.084       .  S
C787        C788   1.390       .  A
C787        H798   1.084       .  S
C788        C789   1.399       .  A
C788        H799   1.084       .  S
C789        C790   1.422       .  A
C789        C794   1.403       .  A
C790        C791   1.416       .  A
C791        C792   1.398       .  A
C791        H800   1.078       .  S
C792        C793   1.398       .  A
C792        H801   1.084       .  S
C793        C794   1.399       .  A
C794        H802   1.085       .  S
C803        C804   1.403       .  A
C803        C808   1.400       .  A
C804        C805   1.391       .  A
C804        H817   1.083       .  S
C805        C806   1.411       .  A
C805        H818   1.077       .  S
C806        C812   1.427       .  A
C806        C807   1.425       .  A
C807        C809   1.398       .  A
C807        C808   1.406       .  A
C808        H819   1.084       .  S
C809        C810   1.389       .  A
C809        H820   1.084       .  S
C810        C811   1.400       .  A
C810        H821   1.084       .  S
C811        C812   1.419       .  A
C811        C816   1.400       .  A
C812        C813   1.417       .  A
C813        C814   1.397       .  A
C813        H822   1.077       .  S
C814        C815   1.399       .  A
C814        H823   1.083       .  S
C815        C816   1.404       .  A
C816        H824   1.084       .  S
C825        C826   1.402       .  A
C825        C830   1.400       .  A
C826        C827   1.390       .  A
C826        H839   1.083       .  S
C827        C828   1.411       .  A
C827        H840   1.077       .  S
C828        C834   1.426       .  A
C828        C829   1.424       .  A
C829        C831   1.399       .  A
C829        C830   1.407       .  A
C830        H841   1.084       .  S
C831        C832   1.390       .  A
C831        H842   1.084       .  S
C832        C833   1.400       .  A
C832        H843   1.084       .  S
C833        C834   1.420       .  A
C833        C838   1.402       .  A
C834        C835   1.416       .  A
C835        C836   1.394       .  A
C835        H844   1.077       .  S
C836        C837   1.399       .  A
C836        H845   1.083       .  S
C837        C838   1.404       .  A
C838        H846   1.084       .  S
C847        C848   1.402       .  A
C847        C852   1.402       .  A
C848        C849   1.394   1_545  A
C848        H861   1.083   1_545  S
C849        C850   1.413   1_565  A
C849        H862   1.076       .  S
C850        C856   1.430       .  A
C850        C851   1.423       .  A
C851        C853   1.399       .  A
C851        C852   1.407       .  A
C852        H863   1.084       .  S
C853        C854   1.390       .  A
C853        H864   1.084       .  S
C854        C855   1.400       .  A
C854        H865   1.084       .  S
C855        C856   1.421       .  A
C855        C860   1.404       .  A
C856        C857   1.416   1_545  A
C857        C858   1.397       .  A
C857        H866   1.076       .  S
C858        C859   1.400       .  A
C858        H867   1.083       .  S
C859        C860   1.405   1_565  A
C860        H868   1.084       .  S
C869        C870   1.399       .  A
C869        C874   1.398       .  A
C870        C871   1.400       .  A
C870        H883   1.083       .  S
C871        C872   1.416       .  A
C871        H884   1.078       .  S
C872        C878   1.431   1_445  A
C872        C873   1.423       .  A
C873        C875   1.399       .  A
C873        C874   1.403       .  A
C874        H885   1.085       .  S
C875        C876   1.388   1_455  A
C875        H886   1.084       .  S
C876        C877   1.399   1_545  A
C876        H887   1.084       .  S
C877        C878   1.422       .  A
C877        C882   1.402       .  A
C878        C879   1.417       .  A
C879        C880   1.401       .  A
C879        H888   1.078       .  S
C880        C881   1.399       .  A
C880        H889   1.083       .  S
C881        C882   1.400       .  A
C882        H890   1.085       .  S
C891        C892   1.397       .  A
C891        C896   1.397       .  A
C892        C893   1.398       .  A
C892        H905   1.084       .  S
C893        C894   1.417       .  A
C893        H906   1.078       .  S
C894        C900   1.429       .  A
C894        C895   1.422       .  A
C895        C897   1.399       .  A
C895        C896   1.402       .  A
C896        H907   1.085       .  S
C897        C898   1.389       .  A
C897        H908   1.084       .  S
C898        C899   1.399       .  A
C898        H909   1.084       .  S
C899        C900   1.422       .  A
C899        C904   1.404       .  A
C900        C901   1.414       .  A
C901        C902   1.397       .  A
C901        H910   1.078       .  S
C902        C903   1.401       .  A
C902        H911   1.083       .  S
C903        C904   1.402       .  A
C904        H912   1.085       .  S
C913        C914   1.398       .  A
C913        C918   1.401       .  A
C914        C915   1.395       .  A
C914        H927   1.083       .  S
C915        C916   1.415       .  A
C915        H928   1.084       .  S
C916        C922   1.429       .  A
C916        C917   1.422       .  A
C917        C919   1.400       .  A
C917        C918   1.405       .  A
C918        H929   1.086       .  S
C919        C920   1.391       .  A
C919        H930   1.084       .  S
C920        C921   1.399       .  A
C920        H931   1.084       .  S
C921        C922   1.425       .  A
C921        C926   1.408       .  A
C922        C923   1.412       .  A
C923        C924   1.392       .  A
C923        H932   1.084       .  S
C924        C925   1.400       .  A
C924        H933   1.083       .  S
C925        C926   1.399       .  A
C926        H934   1.086       .  S
C935        C936   1.403       .  A
C935        C940   1.402       .  A
C936        C937   1.396       .  A
C936        H949   1.083       .  S
C937        C938   1.413       .  A
C937        H950   1.078       .  S
C938        C944   1.432   1_655  A
C938        C939   1.424       .  A
C939        C941   1.399       .  A
C939        C940   1.408       .  A
C940        H951   1.084       .  S
C941        C942   1.391   1_655  A
C941        H952   1.084       .  S
C942        C943   1.400       .  A
C942        H953   1.084       .  S
C943        C944   1.421       .  A
C943        C948   1.406       .  A
C944        C945   1.417       .  A
C945        C946   1.399       .  A
C945        H954   1.078       .  S
C946        C947   1.401       .  A
C946        H955   1.083       .  S
C947        C948   1.405       .  A
C948        H956   1.084       .  S
C957        C958   1.398       .  A
C957        C962   1.401       .  A
C958        C959   1.398       .  A
C958        H971   1.083       .  S
C959        C960   1.417       .  A
C959        H972   1.077       .  S
C960        C966   1.429   1_655  A
C960        C961   1.421       .  A
C961        C963   1.400       .  A
C961        C962   1.403       .  A
C962        H973   1.085       .  S
C963        C964   1.390   1_655  A
C963        H974   1.084       .  S
C964        C965   1.399       .  A
C964        H975   1.084       .  S
C965        C966   1.424       .  A
C965        C970   1.406       .  A
C966        C967   1.413       .  A
C967        C968   1.395       .  A
C967        H976   1.077       .  S
C968        C969   1.400       .  A
C968        H977   1.084       .  S
C969        C970   1.399       .  A
C970        H978   1.084       .  S
C979        C980   1.401       .  A
C979        C984   1.404       .  A
C980        C981   1.397       .  A
C980        H993   1.083       .  S
C981        C982   1.415       .  A
C981        H994   1.076       .  S
C982        C988   1.432       .  A
C982        C983   1.422       .  A
C983        C985   1.400       .  A
C983        C984   1.407       .  A
C984        H995   1.084       .  S
C985        C986   1.391       .  A
C985        H996   1.084       .  S
C986        C987   1.400       .  A
C986        H997   1.084       .  S
C987        C988   1.423       .  A
C987        C992   1.408       .  A
C988        C989   1.414       .  A
C989        C990   1.396       .  A
C989        H998   1.076       .  S
C990        C991   1.402       .  A
C990        H999   1.083       .  S
C991        C992   1.403       .  A
C992       H1000   1.084       .  S
C1001      C1002   1.404       .  A
C1001      C1006   1.400       .  A
C1002      C1003   1.390       .  A
C1002      H1015   1.083       .  S
C1003      C1004   1.409       .  A
C1003      H1016   1.077       .  S
C1004      C1010   1.427       .  A
C1004      C1005   1.425       .  A
C1005      C1007   1.398       .  A
C1005      C1006   1.408       .  A
C1006      H1017   1.084       .  S
C1007      C1008   1.390       .  A
C1007      H1018   1.084       .  S
C1008      C1009   1.400       .  A
C1008      H1019   1.084       .  S
C1009      C1010   1.419       .  A
C1009      C1014   1.401       .  A
C1010      C1011   1.418       .  A
C1011      C1012   1.396       .  A
C1011      H1020   1.077       .  S
C1012      C1013   1.398       .  A
C1012      H1021   1.083       .  S
C1013      C1014   1.404       .  A
C1014      H1022   1.084       .  S
C1023      C1024   1.402       .  A
C1023      C1028   1.400       .  A
C1024      C1025   1.393       .  A
C1024      H1037   1.083       .  S
C1025      C1026   1.413       .  A
C1025      H1038   1.077       .  S
C1026      C1032   1.426       .  A
C1026      C1027   1.423       .  A
C1027      C1029   1.398       .  A
C1027      C1028   1.401       .  A
C1028      H1039   1.084       .  S
C1029      C1030   1.386       .  A
C1029      H1040   1.084       .  S
C1030      C1031   1.398       .  A
C1030      H1041   1.084       .  S
C1031      C1032   1.420       .  A
C1031      C1036   1.398       .  A
C1032      C1033   1.416       .  A
C1033      C1034   1.396       .  A
C1033      H1042   1.077       .  S
C1034      C1035   1.399       .  A
C1034      H1043   1.083       .  S
C1035      C1036   1.401       .  A
C1036      H1044   1.085       .  S
C1045      C1046   1.400       .  A
C1045      C1050   1.405   1_545  A
C1046      C1047   1.401       .  A
C1046      H1059   1.083       .  S
C1047      C1048   1.418       .  A
C1047      H1060   1.078       .  S
C1048      C1054   1.432   1_655  A
C1048      C1049   1.420   1_545  A
C1049      C1051   1.400       .  A
C1049      C1050   1.403       .  A
C1050      H1061   1.084       .  S
C1051      C1052   1.389   1_655  A
C1051      H1062   1.084       .  S
C1052      C1053   1.398       .  A
C1052      H1063   1.084       .  S
C1053      C1054   1.425   1_565  A
C1053      C1058   1.408       .  A
C1054      C1055   1.412       .  A
C1055      C1056   1.396       .  A
C1055      H1064   1.078       .  S
C1056      C1057   1.404   1_545  A
C1056      H1065   1.083       .  S
C1057      C1058   1.401       .  A
C1058      H1066   1.085       .  S
C1067      C1068   1.397       .  A
C1067      C1072   1.400       .  A
C1068      C1069   1.392       .  A
C1068      H1081   1.084       .  S
C1069      C1070   1.414       .  A
C1069      H1082   1.076       .  S
C1070      C1076   1.426   1_545  A
C1070      C1071   1.422       .  A
C1071      C1073   1.400       .  A
C1071      C1072   1.405       .  A
C1072      H1083   1.085       .  S
C1073      C1074   1.391   1_545  A
C1073      H1084   1.084       .  S
C1074      C1075   1.400       .  A
C1074      H1085   1.084       .  S
C1075      C1076   1.423       .  A
C1075      C1080   1.406       .  A
C1076      C1077   1.414       .  A
C1077      C1078   1.391       .  A
C1077      H1086   1.076       .  S
C1078      C1079   1.397       .  A
C1078      H1087   1.084       .  S
C1079      C1080   1.399       .  A
C1080      H1088   1.085       .  S
C1089      C1090   1.400       .  A
C1089      C1094   1.406       .  A
C1090      C1091   1.399       .  A
C1090      H1103   1.083       .  S
C1091      C1092   1.417       .  A
C1091      H1104   1.077       .  S
C1092      C1098   1.430       .  A
C1092      C1093   1.420       .  A
C1093      C1095   1.400       .  A
C1093      C1094   1.403       .  A
C1094      H1105   1.084       .  S
C1095      C1096   1.390       .  A
C1095      H1106   1.084       .  S
C1096      C1097   1.398       .  A
C1096      H1107   1.084       .  S
C1097      C1098   1.424       .  A
C1097      C1102   1.407       .  A
C1098      C1099   1.412       .  A
C1099      C1100   1.394       .  A
C1099      H1108   1.077       .  S
C1100      C1101   1.404       .  A
C1100      H1109   1.083       .  S
C1101      C1102   1.401       .  A
C1102      H1110   1.084       .  S
C1111      C1112   1.398       .  A
C1111      C1116   1.405       .  A
C1112      C1113   1.396       .  A
C1112      H1125   1.083       .  S
C1113      C1114   1.417   1_545  A
C1113      H1126   1.079   1_545  S
C1114      C1120   1.426       .  A
C1114      C1115   1.419   1_565  A
C1115      C1117   1.400   1_545  A
C1115      C1116   1.400       .  A
C1116      H1127   1.085       .  S
C1117      C1118   1.389       .  A
C1117      H1128   1.084       .  S
C1118      C1119   1.398       .  A
C1118      H1129   1.084       .  S
C1119      C1120   1.425       .  A
C1119      C1124   1.406       .  A
C1120      C1121   1.410       .  A
C1121      C1122   1.390       .  A
C1121      H1130   1.079       .  S
C1122      C1123   1.403       .  A
C1122      H1131   1.083       .  S
C1123      C1124   1.399       .  A
C1124      H1132   1.085       .  S
C1133      C1134   1.403       .  A
C1133      C1138   1.401       .  A
C1134      C1135   1.392       .  A
C1134      H1147   1.083       .  S
C1135      C1136   1.411       .  A
C1135      H1148   1.077       .  S
C1136      C1142   1.428       .  A
C1136      C1137   1.424       .  A
C1137      C1139   1.399       .  A
C1137      C1138   1.407       .  A
C1138      H1149   1.084       .  S
C1139      C1140   1.389       .  A
C1139      H1150   1.084       .  S
C1140      C1141   1.400       .  A
C1140      H1151   1.084       .  S
C1141      C1142   1.420       .  A
C1141      C1146   1.402       .  A
C1142      C1143   1.417       .  A
C1143      C1144   1.396       .  A
C1143      H1152   1.077       .  S
C1144      C1145   1.399       .  A
C1144      H1153   1.083       .  S
C1145      C1146   1.404       .  A
C1146      H1154   1.084       .  S
C1155      C1156   1.400       .  A
C1155      C1160   1.407       .  A
C1156      C1157   1.402       .  A
C1156      H1169   1.083       .  S
C1157      C1158   1.419       .  A
C1157      H1170   1.076       .  S
C1158      C1164   1.433       .  A
C1158      C1159   1.419       .  A
C1159      C1161   1.401       .  A
C1159      C1160   1.405       .  A
C1160      H1171   1.084       .  S
C1161      C1162   1.391       .  A
C1161      H1172   1.084       .  S
C1162      C1163   1.399       .  A
C1162      H1173   1.084       .  S
C1163      C1164   1.425       .  A
C1163      C1168   1.412       .  A
C1164      C1165   1.412       .  A
C1165      C1166   1.395       .  A
C1165      H1174   1.076       .  S
C1166      C1167   1.404       .  A
C1166      H1175   1.083       .  S
C1167      C1168   1.403       .  A
C1168      H1176   1.084       .  S
C1177      C1178   1.400       .  A
C1177      C1182   1.404       .  A
C1178      C1179   1.395       .  A
C1178      H1191   1.084       .  S
C1179      C1180   1.415       .  A
C1179      H1192   1.075       .  S
C1180      C1186   1.431       .  A
C1180      C1181   1.423       .  A
C1181      C1183   1.401       .  A
C1181      C1182   1.411       .  A
C1182      H1193   1.084       .  S
C1183      C1184   1.394       .  A
C1183      H1194   1.084       .  S
C1184      C1185   1.401       .  A
C1184      H1195   1.084       .  S
C1185      C1186   1.423       .  A
C1185      C1190   1.411       .  A
C1186      C1187   1.414       .  A
C1187      C1188   1.394       .  A
C1187      H1196   1.075       .  S
C1188      C1189   1.398       .  A
C1188      H1197   1.084       .  S
C1189      C1190   1.402       .  A
C1190      H1198   1.084       .  S
C1199      C1200   1.393       .  A
C1199      C1204   1.395       .  A
C1200      C1201   1.391       .  A
C1200      H1213   1.084       .  S
C1201      C1202   1.415       .  A
C1201      H1214   1.074       .  S
C1202      C1208   1.424       .  A
C1202      C1203   1.424       .  A
C1203      C1205   1.398       .  A
C1203      C1204   1.402       .  A
C1204      H1215   1.085       .  S
C1205      C1206   1.388       .  A
C1205      H1216   1.084       .  S
C1206      C1207   1.400       .  A
C1206      H1217   1.084       .  S
C1207      C1208   1.420       .  A
C1207      C1212   1.400       .  A
C1208      C1209   1.415       .  A
C1209      C1210   1.393       .  A
C1209      H1218   1.075       .  S
C1210      C1211   1.398       .  A
C1210      H1219   1.083       .  S
C1211      C1212   1.402       .  A
C1212      H1220   1.084       .  S
C1221      C1222   1.401       .  A
C1221      C1226   1.405       .  A
C1222      C1223   1.397       .  A
C1222      H1235   1.083       .  S
C1223      C1224   1.415       .  A
C1223      H1236   1.077       .  S
C1224      C1230   1.431       .  A
C1224      C1225   1.421       .  A
C1225      C1227   1.401       .  A
C1225      C1226   1.406       .  A
C1226      H1237   1.084       .  S
C1227      C1228   1.391       .  A
C1227      H1238   1.084       .  S
C1228      C1229   1.399       .  A
C1228      H1239   1.084       .  S
C1229      C1230   1.424       .  A
C1229      C1234   1.408       .  A
C1230      C1231   1.415       .  A
C1231      C1232   1.396       .  A
C1231      H1240   1.077       .  S
C1232      C1233   1.397       .  A
C1232      H1241   1.084       .  S
C1233      C1234   1.398       .  A
C1234      H1242   1.085       .  S
C1243      C1244   1.399       .  A
C1243      C1248   1.402       .  A
C1244      C1245   1.393       .  A
C1244      H1257   1.084       .  S
C1245      C1246   1.415   1_565  A
C1245      H1258   1.077   1_565  S
C1246      C1252   1.428       .  A
C1246      C1247   1.422       .  A
C1247      C1249   1.400       .  A
C1247      C1248   1.406   1_545  A
C1248      H1259   1.085       .  S
C1249      C1250   1.392       .  A
C1249      H1260   1.084       .  S
C1250      C1251   1.400       .  A
C1250      H1261   1.084       .  S
C1251      C1252   1.424       .  A
C1251      C1256   1.409       .  A
C1252      C1253   1.413       .  A
C1253      C1254   1.392       .  A
C1253      H1262   1.077       .  S
C1254      C1255   1.397       .  A
C1254      H1263   1.084       .  S
C1255      C1256   1.400       .  A
C1256      H1264   1.085       .  S
C1265      C1266   1.401       .  A
C1265      C1270   1.402       .  A
C1266      C1267   1.401       .  A
C1266      H1279   1.083       .  S
C1267      C1268   1.416       .  A
C1267      H1280   1.078       .  S
C1268      C1274   1.431       .  A
C1268      C1269   1.422       .  A
C1269      C1271   1.399       .  A
C1269      C1270   1.403       .  A
C1270      H1281   1.085       .  S
C1271      C1272   1.389       .  A
C1271      H1282   1.084       .  S
C1272      C1273   1.399       .  A
C1272      H1283   1.084       .  S
C1273      C1274   1.423       .  A
C1273      C1278   1.404       .  A
C1274      C1275   1.416       .  A
C1275      C1276   1.400       .  A
C1275      H1284   1.078       .  S
C1276      C1277   1.400       .  A
C1276      H1285   1.083       .  S
C1277      C1278   1.400       .  A
C1278      H1286   1.085       .  S
C1287      C1288   1.400       .  A
C1287      C1292   1.402       .  A
C1288      C1289   1.398       .  A
C1288      H1301   1.083       .  S
C1289      C1290   1.416       .  A
C1289      H1302   1.076       .  S
C1290      C1296   1.430       .  A
C1290      C1291   1.422       .  A
C1291      C1293   1.399       .  A
C1291      C1292   1.404       .  A
C1292      H1303   1.084       .  S
C1293      C1294   1.389       .  A
C1293      H1304   1.084       .  S
C1294      C1295   1.399       .  A
C1294      H1305   1.084       .  S
C1295      C1296   1.423       .  A
C1295      C1300   1.405       .  A
C1296      C1297   1.414       .  A
C1297      C1298   1.396       .  A
C1297      H1306   1.076       .  S
C1298      C1299   1.402       .  A
C1298      H1307   1.083       .  S
C1299      C1300   1.402       .  A
C1300      H1308   1.084       .  S
C1309      C1310   1.401       .  A
C1309      C1314   1.398       .  A
C1310      C1311   1.405       .  A
C1310      H1323   1.083       .  S
C1311      C1312   1.417       .  A
C1311      H1324   1.078       .  S
C1312      C1318   1.436       .  A
C1312      C1313   1.424       .  A
C1313      C1315   1.398       .  A
C1313      C1314   1.404       .  A
C1314      H1325   1.085       .  S
C1315      C1316   1.387       .  A
C1315      H1326   1.084       .  S
C1316      C1317   1.399       .  A
C1316      H1327   1.084       .  S
C1317      C1318   1.421       .  A
C1317      C1322   1.402       .  A
C1318      C1319   1.419       .  A
C1319      C1320   1.407       .  A
C1319      H1328   1.078       .  S
C1320      C1321   1.402       .  A
C1320      H1329   1.083       .  S
C1321      C1322   1.403       .  A
C1322      H1330   1.085       .  S
C1331      C1332   1.399       .  A
C1331      C1336   1.404       .  A
C1332      C1333   1.398       .  A
C1332      H1345   1.083       .  S
C1333      C1334   1.417       .  A
C1333      H1346   1.074       .  S
C1334      C1340   1.429       .  A
C1334      C1335   1.420       .  A
C1335      C1337   1.400       .  A
C1335      C1336   1.402       .  A
C1336      H1347   1.084       .  S
C1337      C1338   1.389       .  A
C1337      H1348   1.084       .  S
C1338      C1339   1.398       .  A
C1338      H1349   1.084       .  S
C1339      C1340   1.424       .  A
C1339      C1344   1.406       .  A
C1340      C1341   1.412       .  A
C1341      C1342   1.393       .  A
C1341      H1350   1.074       .  S
C1342      C1343   1.403       .  A
C1342      H1351   1.083       .  S
C1343      C1344   1.401       .  A
C1344      H1352   1.084       .  S
C1353      C1354   1.400       .  A
C1353      C1358   1.403       .  A
C1354      C1355   1.397       .  A
C1354      H1367   1.083       .  S
C1355      C1356   1.417       .  A
C1355      H1368   1.077       .  S
C1356      C1362   1.429       .  A
C1356      C1357   1.420       .  A
C1357      C1359   1.399       .  A
C1357      C1358   1.401       .  A
C1358      H1369   1.084       .  S
C1359      C1360   1.388       .  A
C1359      H1370   1.084       .  S
C1360      C1361   1.398       .  A
C1360      H1371   1.084       .  S
C1361      C1362   1.424       .  A
C1361      C1366   1.405       .  A
C1362      C1363   1.412       .  A
C1363      C1364   1.393       .  A
C1363      H1372   1.077       .  S
C1364      C1365   1.403       .  A
C1364      H1373   1.084       .  S
C1365      C1366   1.399       .  A
C1366      H1374   1.084       .  S
C1375      C1376   1.401       .  A
C1375      C1380   1.399       .  A
C1376      C1377   1.390       .  A
C1376      H1389   1.084       .  S
C1377      C1378   1.410       .  A
C1377      H1390   1.077       .  S
C1378      C1384   1.426       .  A
C1378      C1379   1.425       .  A
C1379      C1381   1.399       .  A
C1379      C1380   1.407       .  A
C1380      H1391   1.084       .  S
C1381      C1382   1.390       .  A
C1381      H1392   1.084       .  S
C1382      C1383   1.401   1_545  A
C1382      H1393   1.084       .  S
C1383      C1384   1.419   1_565  A
C1383      C1388   1.401       .  A
C1384      C1385   1.417   1_545  A
C1385      C1386   1.396       .  A
C1385      H1394   1.077   1_565  S
C1386      C1387   1.398       .  A
C1386      H1395   1.083       .  S
C1387      C1388   1.405       .  A
C1388      H1396   1.084       .  S
C1397      C1398   1.401       .  A
C1397      C1402   1.408       .  A
C1398      C1399   1.402       .  A
C1398      H1411   1.083       .  S
C1399      C1400   1.418       .  A
C1399      H1412   1.076       .  S
C1400      C1406   1.435       .  A
C1400      C1401   1.420       .  A
C1401      C1403   1.401       .  A
C1401      C1402   1.408       .  A
C1402      H1413   1.084       .  S
C1403      C1404   1.392       .  A
C1403      H1414   1.084       .  S
C1404      C1405   1.400       .  A
C1404      H1415   1.084       .  S
C1405      C1406   1.425       .  A
C1405      C1410   1.412       .  A
C1406      C1407   1.412       .  A
C1407      C1408   1.397       .  A
C1407      H1416   1.076       .  S
C1408      C1409   1.405       .  A
C1408      H1417   1.083       .  S
C1409      C1410   1.404       .  A
C1410      H1418   1.084       .  S
C1419      C1420   1.401       .  A
C1419      C1424   1.407       .  A
C1420      C1421   1.400       .  A
C1420      H1433   1.083       .  S
C1421      C1422   1.417       .  A
C1421      H1434   1.078       .  S
C1422      C1428   1.434       .  A
C1422      C1423   1.421       .  A
C1423      C1425   1.401       .  A
C1423      C1424   1.408       .  A
C1424      H1435   1.084       .  S
C1425      C1426   1.392       .  A
C1425      H1436   1.084       .  S
C1426      C1427   1.400       .  A
C1426      H1437   1.084       .  S
C1427      C1428   1.424       .  A
C1427      C1432   1.411       .  A
C1428      C1429   1.413       .  A
C1429      C1430   1.397       .  A
C1429      H1438   1.078       .  S
C1430      C1431   1.404       .  A
C1430      H1439   1.083       .  S
C1431      C1432   1.403       .  A
C1432      H1440   1.084       .  S
C1441      C1442   1.401       .  A
C1441      C1446   1.405       .  A
C1442      C1443   1.403       .  A
C1442      H1455   1.083       .  S
C1443      C1444   1.419       .  A
C1443      H1456   1.078       .  S
C1444      C1450   1.434       .  A
C1444      C1445   1.420       .  A
C1445      C1447   1.400       .  A
C1445      C1446   1.403       .  A
C1446      H1457   1.084       .  S
C1447      C1448   1.389       .  A
C1447      H1458   1.084       .  S
C1448      C1449   1.399       .  A
C1448      H1459   1.084       .  S
C1449      C1450   1.425       .  A
C1449      C1454   1.408       .  A
C1450      C1451   1.413       .  A
C1451      C1452   1.399       .  A
C1451      H1460   1.078       .  S
C1452      C1453   1.404       .  A
C1452      H1461   1.083       .  S
C1453      C1454   1.402       .  A
C1454      H1462   1.084       .  S
C1463      C1464   1.402       .  A
C1463      C1468   1.400       .  A
C1464      C1465   1.394       .  A
C1464      H1477   1.084       .  S
C1465      C1466   1.412       .  A
C1465      H1478   1.077       .  S
C1466      C1472   1.431       .  A
C1466      C1467   1.425       .  A
C1467      C1469   1.399       .  A
C1467      C1468   1.409       .  A
C1468      H1479   1.084       .  S
C1469      C1470   1.390       .  A
C1469      H1480   1.084       .  S
C1470      C1471   1.400       .  A
C1470      H1481   1.084       .  S
C1471      C1472   1.420       .  A
C1471      C1476   1.404       .  A
C1472      C1473   1.418       .  A
C1473      C1474   1.400       .  A
C1473      H1482   1.077       .  S
C1474      C1475   1.398       .  A
C1474      H1483   1.083       .  S
C1475      C1476   1.402       .  A
C1476      H1484   1.085       .  S
C1485      C1486   1.400       .  A
C1485      C1490   1.406       .  A
C1486      C1487   1.397       .  A
C1486      H1499   1.083       .  S
C1487      C1488   1.416       .  A
C1487      H1500   1.079       .  S
C1488      C1494   1.431       .  A
C1488      C1489   1.421       .  A
C1489      C1491   1.401       .  A
C1489      C1490   1.406       .  A
C1490      H1501   1.085       .  S
C1491      C1492   1.392       .  A
C1491      H1502   1.084       .  S
C1492      C1493   1.400       .  A
C1492      H1503   1.084       .  S
C1493      C1494   1.424       .  A
C1493      C1498   1.410       .  A
C1494      C1495   1.412       .  A
C1495      C1496   1.393       .  A
C1495      H1504   1.079       .  S
C1496      C1497   1.403       .  A
C1496      H1505   1.083       .  S
C1497      C1498   1.403       .  A
C1498      H1506   1.085       .  S
C1507      C1508   1.401       .  A
C1507      C1512   1.399       .  A
C1508      C1509   1.398   1_545  A
C1508      H1521   1.083       .  S
C1509      C1510   1.415       .  A
C1509      H1522   1.078       .  S
C1510      C1516   1.429       .  A
C1510      C1511   1.423       .  A
C1511      C1513   1.398       .  A
C1511      C1512   1.401   1_565  A
C1512      H1523   1.085       .  S
C1513      C1514   1.387       .  A
C1513      H1524   1.084       .  S
C1514      C1515   1.398       .  A
C1514      H1525   1.084       .  S
C1515      C1516   1.422       .  A
C1515      C1520   1.400       .  A
C1516      C1517   1.417       .  A
C1517      C1518   1.400       .  A
C1517      H1526   1.078       .  S
C1518      C1519   1.398       .  A
C1518      H1527   1.083       .  S
C1519      C1520   1.398       .  A
C1520      H1528   1.085       .  S
C1529      C1530   1.401       .  A
C1529      C1534   1.397       .  A
C1530      C1531   1.400       .  A
C1530      H1543   1.083       .  S
C1531      C1532   1.415       .  A
C1531      H1544   1.078       .  S
C1532      C1538   1.431       .  A
C1532      C1533   1.424       .  A
C1533      C1535   1.398       .  A
C1533      C1534   1.403       .  A
C1534      H1545   1.085       .  S
C1535      C1536   1.387       .  A
C1535      H1546   1.084       .  S
C1536      C1537   1.399       .  A
C1536      H1547   1.084       .  S
C1537      C1538   1.421       .  A
C1537      C1542   1.399       .  A
C1538      C1539   1.419       .  A
C1539      C1540   1.403       .  A
C1539      H1548   1.078       .  S
C1540      C1541   1.399       .  A
C1540      H1549   1.083       .  S
C1541      C1542   1.400       .  A
C1542      H1550   1.085       .  S
C1551      C1552   1.401       .  A
C1551      C1556   1.405       .  A
C1552      C1553   1.397       .  A
C1552      H1565   1.084       .  S
C1553      C1554   1.414       .  A
C1553      H1566   1.076       .  S
C1554      C1560   1.435       .  A
C1554      C1555   1.424       .  A
C1555      C1557   1.402       .  A
C1555      C1556   1.415       .  A
C1556      H1567   1.084       .  S
C1557      C1558   1.395       .  A
C1557      H1568   1.084       .  S
C1558      C1559   1.401       .  A
C1558      H1569   1.084       .  S
C1559      C1560   1.423       .  A
C1559      C1564   1.414       .  A
C1560      C1561   1.415       .  A
C1561      C1562   1.397       .  A
C1561      H1570   1.076       .  S
C1562      C1563   1.400       .  A
C1562      H1571   1.084       .  S
C1563      C1564   1.405       .  A
C1564      H1572   1.084       .  S
C1573      C1574   1.398       .  A
C1573      C1578   1.402       .  A
C1574      C1575   1.400       .  A
C1574      H1587   1.083       .  S
C1575      C1576   1.418       .  A
C1575      H1588   1.078       .  S
C1576      C1582   1.432       .  A
C1576      C1577   1.421       .  A
C1577      C1579   1.400       .  A
C1577      C1578   1.406       .  A
C1578      H1589   1.085       .  S
C1579      C1580   1.391       .  A
C1579      H1590   1.084       .  S
C1580      C1581   1.399       .  A
C1580      H1591   1.084       .  S
C1581      C1582   1.424       .  A
C1581      C1586   1.409       .  A
C1582      C1583   1.412       .  A
C1583      C1584   1.395       .  A
C1583      H1592   1.078       .  S
C1584      C1585   1.403       .  A
C1584      H1593   1.083       .  S
C1585      C1586   1.402       .  A
C1586      H1594   1.084       .  S
C1595      C1596   1.397       .  A
C1595      C1600   1.398       .  A
C1596      C1597   1.396       .  A
C1596      H1609   1.084       .  S
C1597      C1598   1.415       .  A
C1597      H1610   1.078       .  S
C1598      C1604   1.427       .  A
C1598      C1599   1.423       .  A
C1599      C1601   1.399       .  A
C1599      C1600   1.404       .  A
C1600      H1611   1.085       .  S
C1601      C1602   1.390       .  A
C1601      H1612   1.084       .  S
C1602      C1603   1.400       .  A
C1602      H1613   1.084       .  S
C1603      C1604   1.421       .  A
C1603      C1608   1.403       .  A
C1604      C1605   1.415       .  A
C1605      C1606   1.396       .  A
C1605      H1614   1.078       .  S
C1606      C1607   1.399       .  A
C1606      H1615   1.083       .  S
C1607      C1608   1.401       .  A
C1608      H1616   1.085       .  S
C1617      C1618   1.398       .  A
C1617      C1622   1.401       .  A
C1618      C1619   1.395       .  A
C1618      H1631   1.083       .  S
C1619      C1620   1.415       .  A
C1619      H1632   1.078       .  S
C1620      C1626   1.427       .  A
C1620      C1621   1.422       .  A
C1621      C1623   1.400       .  A
C1621      C1622   1.405       .  A
C1622      H1633   1.085       .  S
C1623      C1624   1.391       .  A
C1623      H1634   1.084       .  S
C1624      C1625   1.400       .  A
C1624      H1635   1.084       .  S
C1625      C1626   1.422       .  A
C1625      C1630   1.405       .  A
C1626      C1627   1.414       .  A
C1627      C1628   1.395       .  A
C1627      H1636   1.078       .  S
C1628      C1629   1.398       .  A
C1628      H1637   1.083       .  S
C1629      C1630   1.400       .  A
C1630      H1638   1.085       .  S
C1639      C1640   1.401       .  A
C1639      C1644   1.400       .  A
C1640      C1641   1.398       .  A
C1640      H1653   1.083       .  S
C1641      C1642   1.415       .  A
C1641      H1654   1.077       .  S
C1642      C1648   1.430       .  A
C1642      C1643   1.423       .  A
C1643      C1645   1.398       .  A
C1643      C1644   1.402       .  A
C1644      H1655   1.085       .  S
C1645      C1646   1.387       .  A
C1645      H1656   1.084       .  S
C1646      C1647   1.399       .  A
C1646      H1657   1.084       .  S
C1647      C1648   1.422       .  A
C1647      C1652   1.401       .  A
C1648      C1649   1.416       .  A
C1649      C1650   1.399       .  A
C1649      H1658   1.077       .  S
C1650      C1651   1.401       .  A
C1650      H1659   1.083       .  S
C1651      C1652   1.401       .  A
C1652      H1660   1.085       .  S
C1661      C1662   1.402       .  A
C1661      C1666   1.400       .  A
C1662      C1663   1.393       .  A
C1662      H1675   1.083       .  S
C1663      C1664   1.413       .  A
C1663      H1676   1.077       .  S
C1664      C1670   1.426       .  A
C1664      C1665   1.423       .  A
C1665      C1667   1.398       .  A
C1665      C1666   1.401       .  A
C1666      H1677   1.084       .  S
C1667      C1668   1.387       .  A
C1667      H1678   1.084       .  S
C1668      C1669   1.399       .  A
C1668      H1679   1.084       .  S
C1669      C1670   1.420       .  A
C1669      C1674   1.398       .  A
C1670      C1671   1.417       .  A
C1671      C1672   1.397       .  A
C1671      H1680   1.077       .  S
C1672      C1673   1.398       .  A
C1672      H1681   1.083       .  S
C1673      C1674   1.401       .  A
C1674      H1682   1.085       .  S
C1683      C1684   1.404       .  A
C1683      C1688   1.399       .  A
C1684      C1685   1.393       .  A
C1684      H1697   1.083       .  S
C1685      C1686   1.411       .  A
C1685      H1698   1.076       .  S
C1686      C1692   1.429       .  A
C1686      C1687   1.425       .  A
C1687      C1689   1.398       .  A
C1687      C1688   1.406       .  A
C1688      H1699   1.084       .  S
C1689      C1690   1.388       .  A
C1689      H1700   1.084       .  S
C1690      C1691   1.400       .  A
C1690      H1701   1.084       .  S
C1691      C1692   1.419       .  A
C1691      C1696   1.399       .  A
C1692      C1693   1.419       .  A
C1693      C1694   1.400       .  A
C1693      H1702   1.076       .  S
C1694      C1695   1.399       .  A
C1694      H1703   1.083       .  S
C1695      C1696   1.404       .  A
C1696      H1704   1.084       .  S
C1705      C1706   1.399       .  A
C1705      C1710   1.401       .  A
C1706      C1707   1.392       .  A
C1706      H1719   1.083       .  S
C1707      C1708   1.414       .  A
C1707      H1720   1.077       .  S
C1708      C1714   1.425   1_556  A
C1708      C1709   1.422       .  A
C1709      C1711   1.399       .  A
C1709      C1710   1.402       .  A
C1710      H1721   1.085       .  S
C1711      C1712   1.389   1_556  A
C1711      H1722   1.084       .  S
C1712      C1713   1.399       .  A
C1712      H1723   1.084       .  S
C1713      C1714   1.422       .  A
C1713      C1718   1.402       .  A
C1714      C1715   1.414       .  A
C1715      C1716   1.392       .  A
C1715      H1724   1.077       .  S
C1716      C1717   1.400       .  A
C1716      H1725   1.083       .  S
C1717      C1718   1.401       .  A
C1718      H1726   1.085       .  S
C1727      C1728   1.401       .  A
C1727      C1732   1.402       .  A
C1728      C1729   1.402       .  A
C1728      H1741   1.083       .  S
C1729      C1730   1.417       .  A
C1729      H1742   1.078       .  S
C1730      C1736   1.433       .  A
C1730      C1731   1.422       .  A
C1731      C1733   1.399       .  A
C1731      C1732   1.404       .  A
C1732      H1743   1.085       .  S
C1733      C1734   1.389       .  A
C1733      H1744   1.084       .  S
C1734      C1735   1.399       .  A
C1734      H1745   1.084       .  S
C1735      C1736   1.423       .  A
C1735      C1740   1.406       .  A
C1736      C1737   1.415       .  A
C1737      C1738   1.400       .  A
C1737      H1746   1.078       .  S
C1738      C1739   1.401       .  A
C1738      H1747   1.083       .  S
C1739      C1740   1.401       .  A
C1740      H1748   1.085       .  S
C1749      C1750   1.401       .  A
C1749      C1754   1.403       .  A
C1750      C1751   1.397       .  A
C1750      H1763   1.083   1_545  S
C1751      C1752   1.414       .  A
C1751      H1764   1.077   1_545  S
C1752      C1758   1.431   1_556  A
C1752      C1753   1.423       .  A
C1753      C1755   1.399       .  A
C1753      C1754   1.405       .  A
C1754      H1765   1.084       .  S
C1755      C1756   1.389   1_556  A
C1755      H1766   1.084       .  S
C1756      C1757   1.400       .  A
C1756      H1767   1.084       .  S
C1757      C1758   1.422       .  A
C1757      C1762   1.404       .  A
C1758      C1759   1.416       .  A
C1759      C1760   1.398       .  A
C1759      H1768   1.077   1_545  S
C1760      C1761   1.400       .  A
C1760      H1769   1.083   1_545  S
C1761      C1762   1.403       .  A
C1762      H1770   1.084       .  S
C1771      C1772   1.398       .  A
C1771      C1776   1.407       .  A
C1772      C1773   1.400       .  A
C1772      H1785   1.083       .  S
C1773      C1774   1.420       .  A
C1773      H1786   1.077       .  S
C1774      C1780   1.430       .  A
C1774      C1775   1.418       .  A
C1775      C1777   1.401       .  A
C1775      C1776   1.401       .  A
C1776      H1787   1.084       .  S
C1777      C1778   1.390       .  A
C1777      H1788   1.084       .  S
C1778      C1779   1.398       .  A
C1778      H1789   1.084       .  S
C1779      C1780   1.426       .  A
C1779      C1784   1.410       .  A
C1780      C1781   1.409       .  A
C1781      C1782   1.391       .  A
C1781      H1790   1.077       .  S
C1782      C1783   1.404       .  A
C1782      H1791   1.083       .  S
C1783      C1784   1.400       .  A
C1784      H1792   1.084       .  S
C1793      C1794   1.399       .  A
C1793      C1798   1.403       .  A
C1794      C1795   1.393       .  A
C1794      H1807   1.083       .  S
C1795      C1796   1.414       .  A
C1795      H1808   1.077       .  S
C1796      C1802   1.426       .  A
C1796      C1797   1.421       .  A
C1797      C1799   1.400       .  A
C1797      C1798   1.403       .  A
C1798      H1809   1.084       .  S
C1799      C1800   1.391       .  A
C1799      H1810   1.084       .  S
C1800      C1801   1.399       .  A
C1800      H1811   1.084       .  S
C1801      C1802   1.423       .  A
C1801      C1806   1.406       .  A
C1802      C1803   1.412       .  A
C1803      C1804   1.390       .  A
C1803      H1812   1.077       .  S
C1804      C1805   1.398       .  A
C1804      H1813   1.084       .  S
C1805      C1806   1.399       .  A
C1806      H1814   1.085       .  S
C1815      C1816   1.398       .  A
C1815      C1820   1.398       .  A
C1816      C1817   1.394       .  A
C1816      H1829   1.084       .  S
C1817      C1818   1.414       .  A
C1817      H1830   1.077   1_565  S
C1818      C1824   1.426   1_565  A
C1818      C1819   1.423       .  A
C1819      C1821   1.399       .  A
C1819      C1820   1.403       .  A
C1820      H1831   1.085       .  S
C1821      C1822   1.389   1_565  A
C1821      H1832   1.084       .  S
C1822      C1823   1.399       .  A
C1822      H1833   1.084       .  S
C1823      C1824   1.422       .  A
C1823      C1828   1.402       .  A
C1824      C1825   1.415       .  A
C1825      C1826   1.395       .  A
C1825      H1834   1.077       .  S
C1826      C1827   1.398       .  A
C1826      H1835   1.084       .  S
C1827      C1828   1.398       .  A
C1828      H1836   1.085       .  S
C1837      C1838   1.401       .  A
C1837      C1842   1.403       .  A
C1838      C1839   1.393       .  A
C1838      H1851   1.083       .  S
C1839      C1840   1.413       .  A
C1839      H1852   1.076       .  S
C1840      C1846   1.428   1_556  A
C1840      C1841   1.423       .  A
C1841      C1843   1.400       .  A
C1841      C1842   1.406       .  A
C1842      H1853   1.084       .  S
C1843      C1844   1.390   1_556  A
C1843      H1854   1.084   1_565  S
C1844      C1845   1.400       .  A
C1844      H1855   1.084   1_565  S
C1845      C1846   1.422       .  A
C1845      C1850   1.405       .  A
C1846      C1847   1.414       .  A
C1847      C1848   1.393       .  A
C1847      H1856   1.076       .  S
C1848      C1849   1.401       .  A
C1848      H1857   1.083       .  S
C1849      C1850   1.402       .  A
C1850      H1858   1.084       .  S
C1859      C1860   1.401   1_565  A
C1859      C1864   1.398       .  A
C1860      C1861   1.394       .  A
C1860      H1873   1.084       .  S
C1861      C1862   1.413       .  A
C1861      H1874   1.079       .  S
C1862      C1868   1.429   1_655  A
C1862      C1863   1.425   1_545  A
C1863      C1865   1.398       .  A
C1863      C1864   1.406       .  A
C1864      H1875   1.085       .  S
C1865      C1866   1.389   1_655  A
C1865      H1876   1.084       .  S
C1866      C1867   1.400       .  A
C1866      H1877   1.084       .  S
C1867      C1868   1.420   1_565  A
C1867      C1872   1.401       .  A
C1868      C1869   1.418       .  A
C1869      C1870   1.399       .  A
C1869      H1878   1.079       .  S
C1870      C1871   1.398       .  A
C1870      H1879   1.083       .  S
C1871      C1872   1.402   1_545  A
C1872      H1880   1.085       .  S
C1881      C1882   1.400       .  A
C1881      C1886   1.403       .  A
C1882      C1883   1.393       .  A
C1882      H1895   1.083       .  S
C1883      C1884   1.414       .  A
C1883      H1896   1.076       .  S
C1884      C1890   1.428   1_556  A
C1884      C1885   1.422       .  A
C1885      C1887   1.400       .  A
C1885      C1886   1.406       .  A
C1886      H1897   1.084       .  S
C1887      C1888   1.391   1_556  A
C1887      H1898   1.084       .  S
C1888      C1889   1.400       .  A
C1888      H1899   1.084       .  S
C1889      C1890   1.423       .  A
C1889      C1894   1.407       .  A
C1890      C1891   1.413       .  A
C1891      C1892   1.393       .  A
C1891      H1900   1.076       .  S
C1892      C1893   1.401       .  A
C1892      H1901   1.083       .  S
C1893      C1894   1.403       .  A
C1894      H1902   1.084       .  S
C1903      C1904   1.397       .  A
C1903      C1908   1.403       .  A
C1904      C1905   1.398       .  A
C1904      H1917   1.083       .  S
C1905      C1906   1.417       .  A
C1905      H1918   1.078       .  S
C1906      C1912   1.426       .  A
C1906      C1907   1.419       .  A
C1907      C1909   1.400       .  A
C1907      C1908   1.401       .  A
C1908      H1919   1.085       .  S
C1909      C1910   1.390       .  A
C1909      H1920   1.084       .  S
C1910      C1911   1.399       .  A
C1910      H1921   1.084       .  S
C1911      C1912   1.423       .  A
C1911      C1916   1.405       .  A
C1912      C1913   1.412       .  A
C1913      C1914   1.394       .  A
C1913      H1922   1.078       .  S
C1914      C1915   1.400       .  A
C1914      H1923   1.084       .  S
C1915      C1916   1.399       .  A
C1916      H1924   1.085       .  S
C1925      C1926   1.401       .  A
C1925      C1930   1.397       .  A
C1926      C1927   1.395       .  A
C1926      H1939   1.084       .  S
C1927      C1928   1.412       .  A
C1927      H1940   1.078       .  S
C1928      C1934   1.428       .  A
C1928      C1929   1.425       .  A
C1929      C1931   1.398       .  A
C1929      C1930   1.404       .  A
C1930      H1941   1.085       .  S
C1931      C1932   1.388       .  A
C1931      H1942   1.084       .  S
C1932      C1933   1.400       .  A
C1932      H1943   1.084       .  S
C1933      C1934   1.419       .  A
C1933      C1938   1.398       .  A
C1934      C1935   1.419       .  A
C1935      C1936   1.402       .  A
C1935      H1944   1.078       .  S
C1936      C1937   1.397       .  A
C1936      H1945   1.083       .  S
C1937      C1938   1.401       .  A
C1938      H1946   1.085       .  S
C1947      C1948   1.402       .  A
C1947      C1952   1.403       .  A
C1948      C1949   1.401       .  A
C1948      H1961   1.083       .  S
C1949      C1950   1.417       .  A
C1949      H1962   1.078       .  S
C1950      C1956   1.434   1_655  A
C1950      C1951   1.422       .  A
C1951      C1953   1.400       .  A
C1951      C1952   1.405       .  A
C1952      H1963   1.084       .  S
C1953      C1954   1.390   1_655  A
C1953      H1964   1.084       .  S
C1954      C1955   1.399       .  A
C1954      H1965   1.084       .  S
C1955      C1956   1.424       .  A
C1955      C1960   1.408       .  A
C1956      C1957   1.414       .  A
C1957      C1958   1.399       .  A
C1957      H1966   1.078       .  S
C1958      C1959   1.404       .  A
C1958      H1967   1.083       .  S
C1959      C1960   1.401       .  A
C1960      H1968   1.084       .  S
C1969      C1970   1.402       .  A
C1969      C1974   1.400       .  A
C1970      C1971   1.398       .  A
C1970      H1983   1.083       .  S
C1971      C1972   1.415       .  A
C1971      H1984   1.078       .  S
C1972      C1978   1.430       .  A
C1972      C1973   1.423       .  A
C1973      C1975   1.398       .  A
C1973      C1974   1.401       .  A
C1974      H1985   1.085       .  S
C1975      C1976   1.386       .  A
C1975      H1986   1.084       .  S
C1976      C1977   1.398       .  A
C1976      H1987   1.084       .  S
C1977      C1978   1.422       .  A
C1977      C1982   1.400       .  A
C1978      C1979   1.416       .  A
C1979      C1980   1.399       .  A
C1979      H1988   1.078       .  S
C1980      C1981   1.401       .  A
C1980      H1989   1.083       .  S
C1981      C1982   1.401       .  A
C1982      H1990   1.085       .  S
C1991      C1992   1.401       .  A
C1991      C1996   1.401       .  A
C1992      C1993   1.392       .  A
C1992      H2005   1.084       .  S
C1993      C1994   1.411       .  A
C1993      H2006   1.077       .  S
C1994      C2000   1.430   1_655  A
C1994      C1995   1.425       .  A
C1995      C1997   1.400       .  A
C1995      C1996   1.411       .  A
C1996      H2007   1.084       .  S
C1997      C1998   1.393   1_655  A
C1997      H2008   1.084       .  S
C1998      C1999   1.401       .  A
C1998      H2009   1.084       .  S
C1999      C2000   1.421       .  A
C1999      C2004   1.406       .  A
C2000      C2001   1.417       .  A
C2001      C2002   1.397       .  A
C2001      H2010   1.077       .  S
C2002      C2003   1.397       .  A
C2002      H2011   1.083       .  S
C2003      C2004   1.403       .  A
C2004      H2012   1.085       .  S
C2013      C2014   1.402       .  A
C2013      C2018   1.400       .  A
C2014      C2015   1.394       .  A
C2014      H2027   1.083       .  S
C2015      C2016   1.413       .  A
C2015      H2028   1.078       .  S
C2016      C2022   1.427       .  A
C2016      C2017   1.423       .  A
C2017      C2019   1.398       .  A
C2017      C2018   1.402       .  A
C2018      H2029   1.085       .  S
C2019      C2020   1.387       .  A
C2019      H2030   1.084       .  S
C2020      C2021   1.399       .  A
C2020      H2031   1.084       .  S
C2021      C2022   1.421       .  A
C2021      C2026   1.399       .  A
C2022      C2023   1.416       .  A
C2023      C2024   1.396       .  A
C2023      H2032   1.078       .  S
C2024      C2025   1.399       .  A
C2024      H2033   1.083       .  S
C2025      C2026   1.401       .  A
C2026      H2034   1.085       .  S
C2035      C2036   1.398       .  A
C2035      C2040   1.399       .  A
C2036      C2037   1.397       .  A
C2036      H2049   1.084       .  S
C2037      C2038   1.416       .  A
C2037      H2050   1.078       .  S
C2038      C2044   1.431       .  A
C2038      C2039   1.423       .  A
C2039      C2041   1.399   1_545  A
C2039      C2040   1.406       .  A
C2040      H2051   1.085   1_545  S
C2041      C2042   1.390       .  A
C2041      H2052   1.084       .  S
C2042      C2043   1.400   1_565  A
C2042      H2053   1.084       .  S
C2043      C2044   1.423       .  A
C2043      C2048   1.407       .  A
C2044      C2045   1.415       .  A
C2045      C2046   1.397       .  A
C2045      H2054   1.078       .  S
C2046      C2047   1.402       .  A
C2046      H2055   1.083       .  S
C2047      C2048   1.402       .  A
C2048      H2056   1.084       .  S
C2057      C2058   1.399       .  A
C2057      C2062   1.398       .  A
C2058      C2059   1.400       .  A
C2058      H2071   1.083       .  S
C2059      C2060   1.416       .  A
C2059      H2072   1.078       .  S
C2060      C2066   1.430       .  A
C2060      C2061   1.423       .  A
C2061      C2063   1.398       .  A
C2061      C2062   1.401       .  A
C2062      H2073   1.085       .  S
C2063      C2064   1.387       .  A
C2063      H2074   1.084       .  S
C2064      C2065   1.399       .  A
C2064      H2075   1.084       .  S
C2065      C2066   1.421       .  A
C2065      C2070   1.400       .  A
C2066      C2067   1.417       .  A
C2067      C2068   1.400       .  A
C2067      H2076   1.078       .  S
C2068      C2069   1.401       .  A
C2068      H2077   1.083       .  S
C2069      C2070   1.401       .  A
C2070      H2078   1.085       .  S
C2079      C2080   1.398       .  A
C2079      C2084   1.401       .  A
C2080      C2081   1.390       .  A
C2080      H2093   1.084       .  S
C2081      C2082   1.413       .  A
C2081      H2094   1.075       .  S
C2082      C2088   1.428       .  A
C2082      C2083   1.424       .  A
C2083      C2085   1.400       .  A
C2083      C2084   1.410       .  A
C2084      H2095   1.084       .  S
C2085      C2086   1.393       .  A
C2085      H2096   1.084       .  S
C2086      C2087   1.401       .  A
C2086      H2097   1.084       .  S
C2087      C2088   1.423       .  A
C2087      C2092   1.409       .  A
C2088      C2089   1.415       .  A
C2089      C2090   1.392       .  A
C2089      H2098   1.075       .  S
C2090      C2091   1.395       .  A
C2090      H2099   1.084       .  S
C2091      C2092   1.401       .  A
C2092      H2100   1.084       .  S
C2101      C2102   1.403       .  A
C2101      C2106   1.401       .  A
C2102      C2103   1.395   1_545  A
C2102      H2115   1.083   1_545  S
C2103      C2104   1.412   1_565  A
C2103      H2116   1.078       .  S
C2104      C2110   1.430   1_645  A
C2104      C2105   1.424       .  A
C2105      C2107   1.398       .  A
C2105      C2106   1.405       .  A
C2106      H2117   1.085       .  S
C2107      C2108   1.388   1_655  A
C2107      H2118   1.084       .  S
C2108      C2109   1.399       .  A
C2108      H2119   1.084       .  S
C2109      C2110   1.420   1_545  A
C2109      C2114   1.400       .  A
C2110      C2111   1.417       .  A
C2111      C2112   1.399       .  A
C2111      H2120   1.078       .  S
C2112      C2113   1.400       .  A
C2112      H2121   1.083       .  S
C2113      C2114   1.404   1_565  A
C2114      H2122   1.085       .  S
C2123      C2124   1.402   1_565  A
C2123      C2128   1.401       .  A
C2124      C2125   1.397       .  A
C2124      H2137   1.083       .  S
C2125      C2126   1.414       .  A
C2125      H2138   1.078       .  S
C2126      C2132   1.431       .  A
C2126      C2127   1.423   1_545  A
C2127      C2129   1.398       .  A
C2127      C2128   1.404       .  A
C2128      H2139   1.085       .  S
C2129      C2130   1.388       .  A
C2129      H2140   1.084       .  S
C2130      C2131   1.399   1_565  A
C2130      H2141   1.084       .  S
C2131      C2132   1.421       .  A
C2131      C2136   1.402       .  A
C2132      C2133   1.417       .  A
C2133      C2134   1.400       .  A
C2133      H2142   1.078       .  S
C2134      C2135   1.401       .  A
C2134      H2143   1.083       .  S
C2135      C2136   1.404       .  A
C2136      H2144   1.084   1_545  S
C2145      C2146   1.399       .  A
C2145      C2150   1.403       .  A
C2146      C2147   1.390       .  A
C2146      H2159   1.083       .  S
C2147      C2148   1.414       .  A
C2147      H2160   1.071       .  S
C2148      C2154   1.425       .  A
C2148      C2149   1.421       .  A
C2149      C2151   1.400       .  A
C2149      C2150   1.404       .  A
C2150      H2161   1.083       .  S
C2151      C2152   1.391       .  A
C2151      H2162   1.084       .  S
C2152      C2153   1.400       .  A
C2152      H2163   1.084       .  S
C2153      C2154   1.422       .  A
C2153      C2158   1.406       .  A
C2154      C2155   1.412       .  A
C2155      C2156   1.388       .  A
C2155      H2164   1.070       .  S
C2156      C2157   1.400       .  A
C2156      H2165   1.083       .  S
C2157      C2158   1.402       .  A
C2158      H2166   1.084       .  S
C2167      C2168   1.406       .  A
C2167      C2172   1.403       .  A
C2168      C2169   1.394       .  A
C2168      H2181   1.083       .  S
C2169      C2170   1.411       .  A
C2169      H2182   1.076       .  S
C2170      C2176   1.433       .  A
C2170      C2171   1.425       .  A
C2171      C2173   1.399       .  A
C2171      C2172   1.413       .  A
C2172      H2183   1.084       .  S
C2173      C2174   1.392       .  A
C2173      H2184   1.084       .  S
C2174      C2175   1.401       .  A
C2174      H2185   1.084       .  S
C2175      C2176   1.419       .  A
C2175      C2180   1.406       .  A
C2176      C2177   1.419       .  A
C2177      C2178   1.401       .  A
C2177      H2186   1.076       .  S
C2178      C2179   1.401       .  A
C2178      H2187   1.083       .  S
C2179      C2180   1.407       .  A
C2180      H2188   1.084       .  S
C2189      C2190   1.403       .  A
C2189      C2194   1.405       .  A
C2190      C2191   1.401       .  A
C2190      H2203   1.083       .  S
C2191      C2192   1.417       .  A
C2191      H2204   1.077       .  S
C2192      C2198   1.435       .  A
C2192      C2193   1.422       .  A
C2193      C2195   1.400       .  A
C2193      C2194   1.408       .  A
C2194      H2205   1.084       .  S
C2195      C2196   1.391       .  A
C2195      H2206   1.084       .  S
C2196      C2197   1.400       .  A
C2196      H2207   1.084       .  S
C2197      C2198   1.423       .  A
C2197      C2202   1.410       .  A
C2198      C2199   1.415       .  A
C2199      C2200   1.400       .  A
C2199      H2208   1.077       .  S
C2200      C2201   1.404       .  A
C2200      H2209   1.083       .  S
C2201      C2202   1.404       .  A
C2202      H2210   1.084       .  S
C2211      C2212   1.404       .  A
C2211      C2216   1.399       .  A
C2212      C2213   1.393       .  A
C2212      H2225   1.084       .  S
C2213      C2214   1.411       .  A
C2213      H2226   1.077       .  S
C2214      C2220   1.428       .  A
C2214      C2215   1.424       .  A
C2215      C2217   1.398       .  A
C2215      C2216   1.405       .  A
C2216      H2227   1.084       .  S
C2217      C2218   1.388       .  A
C2217      H2228   1.084       .  S
C2218      C2219   1.400       .  A
C2218      H2229   1.084       .  S
C2219      C2220   1.420       .  A
C2219      C2224   1.400       .  A
C2220      C2221   1.417       .  A
C2221      C2222   1.398       .  A
C2221      H2230   1.076       .  S
C2222      C2223   1.400       .  A
C2222      H2231   1.083       .  S
C2223      C2224   1.403       .  A
C2224      H2232   1.084       .  S
C2233      C2234   1.398       .  A
C2233      C2238   1.405       .  A
C2234      C2235   1.398       .  A
C2234      H2247   1.083       .  S
C2235      C2236   1.419       .  A
C2235      H2248   1.077       .  S
C2236      C2242   1.427       .  A
C2236      C2237   1.418       .  A
C2237      C2239   1.400       .  A
C2237      C2238   1.398       .  A
C2238      H2249   1.085       .  S
C2239      C2240   1.388       .  A
C2239      H2250   1.084       .  S
C2240      C2241   1.397       .  A
C2240      H2251   1.084       .  S
C2241      C2242   1.426       .  A
C2241      C2246   1.407   1_545  A
C2242      C2243   1.408       .  A
C2243      C2244   1.389   1_545  A
C2243      H2252   1.077       .  S
C2244      C2245   1.405       .  A
C2244      H2253   1.083       .  S
C2245      C2246   1.399       .  A
C2246      H2254   1.084       .  S
C2255      C2256   1.400       .  A
C2255      C2260   1.406       .  A
C2256      C2257   1.400       .  A
C2256      H2269   1.083       .  S
C2257      C2258   1.418       .  A
C2257      H2270   1.076       .  S
C2258      C2264   1.431       .  A
C2258      C2259   1.420       .  A
C2259      C2261   1.401       .  A
C2259      C2260   1.404       .  A
C2260      H2271   1.084       .  S
C2261      C2262   1.391       .  A
C2261      H2272   1.084       .  S
C2262      C2263   1.399       .  A
C2262      H2273   1.084       .  S
C2263      C2264   1.424       .  A
C2263      C2268   1.409       .  A
C2264      C2265   1.412       .  A
C2265      C2266   1.395       .  A
C2265      H2274   1.077       .  S
C2266      C2267   1.404       .  A
C2266      H2275   1.083       .  S
C2267      C2268   1.403       .  A
C2268      H2276   1.084       .  S
C2277      C2278   1.401       .  A
C2277      C2282   1.404       .  A
C2278      C2279   1.396       .  A
C2278      H2291   1.083       .  S
C2279      C2280   1.415       .  A
C2279      H2292   1.075       .  S
C2280      C2286   1.431   1_556  A
C2280      C2281   1.422       .  A
C2281      C2283   1.400       .  A
C2281      C2282   1.407       .  A
C2282      H2293   1.084       .  S
C2283      C2284   1.391   1_556  A
C2283      H2294   1.084       .  S
C2284      C2285   1.400       .  A
C2284      H2295   1.084       .  S
C2285      C2286   1.422       .  A
C2285      C2290   1.407       .  A
C2286      C2287   1.415       .  A
C2287      C2288   1.396       .  A
C2287      H2296   1.075       .  S
C2288      C2289   1.401       .  A
C2288      H2297   1.083       .  S
C2289      C2290   1.405       .  A
C2290      H2298   1.084       .  S
C2299      C2300   1.400       .  A
C2299      C2304   1.405       .  A
C2300      C2301   1.401       .  A
C2300      H2313   1.083       .  S
C2301      C2302   1.418       .  A
C2301      H2314   1.077       .  S
C2302      C2308   1.433       .  A
C2302      C2303   1.420       .  A
C2303      C2305   1.400       .  A
C2303      C2304   1.404       .  A
C2304      H2315   1.084       .  S
C2305      C2306   1.390       .  A
C2305      H2316   1.084       .  S
C2306      C2307   1.399       .  A
C2306      H2317   1.084       .  S
C2307      C2308   1.424       .  A
C2307      C2312   1.409       .  A
C2308      C2309   1.413       .  A
C2309      C2310   1.397       .  A
C2309      H2318   1.077       .  S
C2310      C2311   1.404       .  A
C2310      H2319   1.083       .  S
C2311      C2312   1.402       .  A
C2312      H2320   1.084       .  S
C2321      C2322   1.400       .  A
C2321      C2326   1.405       .  A
C2322      C2323   1.394       .  A
C2322      H2335   1.083       .  S
C2323      C2324   1.414       .  A
C2323      H2336   1.078       .  S
C2324      C2330   1.429       .  A
C2324      C2325   1.421       .  A
C2325      C2327   1.401       .  A
C2325      C2326   1.407       .  A
C2326      H2337   1.085       .  S
C2327      C2328   1.392       .  A
C2327      H2338   1.084       .  S
C2328      C2329   1.400       .  A
C2328      H2339   1.084       .  S
C2329      C2330   1.423       .  A
C2329      C2334   1.409       .  A
C2330      C2331   1.412       .  A
C2331      C2332   1.392       .  A
C2331      H2340   1.078       .  S
C2332      C2333   1.401       .  A
C2332      H2341   1.083       .  S
C2333      C2334   1.404       .  A
C2334      H2342   1.085       .  S
C2343      C2344   1.401       .  A
C2343      C2348   1.402       .  A
C2344      C2345   1.393       .  A
C2344      H2357   1.083       .  S
C2345      C2346   1.414       .  A
C2345      H2358   1.077       .  S
C2346      C2352   1.427   1_556  A
C2346      C2347   1.422       .  A
C2347      C2349   1.399       .  A
C2347      C2348   1.404       .  A
C2348      H2359   1.084       .  S
C2349      C2350   1.389   1_556  A
C2349      H2360   1.084       .  S
C2350      C2351   1.399       .  A
C2350      H2361   1.084       .  S
C2351      C2352   1.422       .  A
C2351      C2356   1.403       .  A
C2352      C2353   1.414       .  A
C2353      C2354   1.393       .  A
C2353      H2362   1.077       .  S
C2354      C2355   1.400       .  A
C2354      H2363   1.083       .  S
C2355      C2356   1.402       .  A
C2356      H2364   1.084       .  S
C2365      C2366   1.397       .  A
C2365      C2370   1.400       .  A
C2366      C2367   1.399       .  A
C2366      H2379   1.083       .  S
C2367      C2368   1.417       .  A
C2367      H2380   1.078       .  S
C2368      C2374   1.429       .  A
C2368      C2369   1.421       .  A
C2369      C2371   1.400       .  A
C2369      C2370   1.403       .  A
C2370      H2381   1.085       .  S
C2371      C2372   1.390       .  A
C2371      H2382   1.084       .  S
C2372      C2373   1.399   1_565  A
C2372      H2383   1.084       .  S
C2373      C2374   1.423   1_545  A
C2373      C2378   1.406       .  A
C2374      C2375   1.414   1_565  A
C2375      C2376   1.397       .  A
C2375      H2384   1.078   1_545  S
C2376      C2377   1.401       .  A
C2376      H2385   1.083       .  S
C2377      C2378   1.401       .  A
C2378      H2386   1.085       .  S
C2387      C2388   1.400       .  A
C2387      C2392   1.400       .  A
C2388      C2389   1.393       .  A
C2388      H2401   1.084       .  S
C2389      C2390   1.413       .  A
C2389      H2402   1.078       .  S
C2390      C2396   1.430       .  A
C2390      C2391   1.424       .  A
C2391      C2393   1.400       .  A
C2391      C2392   1.409       .  A
C2392      H2403   1.085       .  S
C2393      C2394   1.392       .  A
C2393      H2404   1.084       .  S
C2394      C2395   1.400       .  A
C2394      H2405   1.084       .  S
C2395      C2396   1.422       .  A
C2395      C2400   1.407       .  A
C2396      C2397   1.416       .  A
C2397      C2398   1.396       .  A
C2397      H2406   1.078       .  S
C2398      C2399   1.398       .  A
C2398      H2407   1.083       .  S
C2399      C2400   1.402       .  A
C2400      H2408   1.085       .  S
C2409      C2410   1.402       .  A
C2409      C2414   1.399       .  A
C2410      C2411   1.405       .  A
C2410      H2423   1.083       .  S
C2411      C2412   1.417       .  A
C2411      H2424   1.078       .  S
C2412      C2418   1.436       .  A
C2412      C2413   1.424       .  A
C2413      C2415   1.398       .  A
C2413      C2414   1.405       .  A
C2414      H2425   1.085       .  S
C2415      C2416   1.388       .  A
C2415      H2426   1.084       .  S
C2416      C2417   1.399       .  A
C2416      H2427   1.084       .  S
C2417      C2418   1.422       .  A
C2417      C2422   1.404       .  A
C2418      C2419   1.418       .  A
C2419      C2420   1.406       .  A
C2419      H2428   1.078       .  S
C2420      C2421   1.402       .  A
C2420      H2429   1.083       .  S
C2421      C2422   1.403       .  A
C2422      H2430   1.085       .  S
C2431      C2432   1.399       .  A
C2431      C2436   1.398       .  A
C2432      C2433   1.399       .  A
C2432      H2445   1.084       .  S
C2433      C2434   1.415       .  A
C2433      H2446   1.078       .  S
C2434      C2440   1.431       .  A
C2434      C2435   1.424       .  A
C2435      C2437   1.399       .  A
C2435      C2436   1.405       .  A
C2436      H2447   1.085       .  S
C2437      C2438   1.389       .  A
C2437      H2448   1.084       .  S
C2438      C2439   1.400       .  A
C2438      H2449   1.084       .  S
C2439      C2440   1.421       .  A
C2439      C2444   1.404       .  A
C2440      C2441   1.417       .  A
C2441      C2442   1.401       .  A
C2441      H2450   1.078       .  S
C2442      C2443   1.401       .  A
C2442      H2451   1.083       .  S
C2443      C2444   1.402       .  A
C2444      H2452   1.085       .  S
C2453      C2454   1.400       .  A
C2453      C2458   1.404       .  A
C2454      C2455   1.394       .  A
C2454      H2467   1.083       .  S
C2455      C2456   1.413       .  A
C2455      H2468   1.078       .  S
C2456      C2462   1.427       .  A
C2456      C2457   1.422       .  A
C2457      C2459   1.401       .  A
C2457      C2458   1.409       .  A
C2458      H2469   1.084       .  S
C2459      C2460   1.393       .  A
C2459      H2470   1.084       .  S
C2460      C2461   1.401       .  A
C2460      H2471   1.084       .  S
C2461      C2462   1.421       .  A
C2461      C2466   1.406       .  A
C2462      C2463   1.415       .  A
C2463      C2464   1.395       .  A
C2463      H2472   1.078       .  S
C2464      C2465   1.397       .  A
C2464      H2473   1.084       .  S
C2465      C2466   1.402       .  A
C2466      H2474   1.085       .  S
C2475      C2476   1.397       .  A
C2475      C2480   1.404       .  A
C2476      C2477   1.399       .  A
C2476      H2489   1.083       .  S
C2477      C2478   1.418       .  A
C2477      H2490   1.077       .  S
C2478      C2484   1.430       .  A
C2478      C2479   1.420       .  A
C2479      C2481   1.401       .  A
C2479      C2480   1.405       .  A
C2480      H2491   1.085       .  S
C2481      C2482   1.392       .  A
C2481      H2492   1.084       .  S
C2482      C2483   1.400       .  A
C2482      H2493   1.084       .  S
C2483      C2484   1.425       .  A
C2483      C2488   1.411       .  A
C2484      C2485   1.411       .  A
C2485      C2486   1.392       .  A
C2485      H2494   1.077       .  S
C2486      C2487   1.402       .  A
C2486      H2495   1.084       .  S
C2487      C2488   1.402       .  A
C2488      H2496   1.084       .  S
C2497      C2498   1.398       .  A
C2497      C2502   1.403       .  A
C2498      C2499   1.399       .  A
C2498      H2511   1.083       .  S
C2499      C2500   1.417       .  A
C2499      H2512   1.078       .  S
C2500      C2506   1.428       .  A
C2500      C2501   1.420       .  A
C2501      C2503   1.400       .  A
C2501      C2502   1.402       .  A
C2502      H2513   1.085       .  S
C2503      C2504   1.390       .  A
C2503      H2514   1.084       .  S
C2504      C2505   1.398       .  A
C2504      H2515   1.084       .  S
C2505      C2506   1.425       .  A
C2505      C2510   1.406       .  A
C2506      C2507   1.413       .  A
C2507      C2508   1.394       .  A
C2507      H2516   1.078       .  S
C2508      C2509   1.399       .  A
C2508      H2517   1.084       .  S
C2509      C2510   1.396       .  A
C2510      H2518   1.085       .  S
C2519      C2520   1.398       .  A
C2519      C2524   1.401       .  A
C2520      C2521   1.390       .  A
C2520      H2533   1.083       .  S
C2521      C2522   1.413       .  A
C2521      H2534   1.078       .  S
C2522      C2528   1.423       .  A
C2522      C2523   1.422       .  A
C2523      C2525   1.399       .  A
C2523      C2524   1.401       .  A
C2524      H2535   1.085       .  S
C2525      C2526   1.389       .  A
C2525      H2536   1.084       .  S
C2526      C2527   1.399       .  A
C2526      H2537   1.084       .  S
C2527      C2528   1.422       .  A
C2527      C2532   1.402       .  A
C2528      C2529   1.413       .  A
C2529      C2530   1.389       .  A
C2529      H2538   1.078       .  S
C2530      C2531   1.399       .  A
C2530      H2539   1.083       .  S
C2531      C2532   1.401       .  A
C2532      H2540   1.085       .  S
C2541      C2542   1.402       .  A
C2541      C2546   1.399       .  A
C2542      C2543   1.393       .  A
C2542      H2555   1.084       .  S
C2543      C2544   1.411       .  A
C2543      H2556   1.075       .  S
C2544      C2550   1.428       .  A
C2544      C2545   1.425       .  A
C2545      C2547   1.398       .  A
C2545      C2546   1.407       .  A
C2546      H2557   1.084       .  S
C2547      C2548   1.389       .  A
C2547      H2558   1.084       .  S
C2548      C2549   1.400   1_565  A
C2548      H2559   1.084   1_565  S
C2549      C2550   1.419   1_545  A
C2549      C2554   1.400       .  A
C2550      C2551   1.419   1_565  A
C2551      C2552   1.400       .  A
C2551      H2560   1.075   1_545  S
C2552      C2553   1.397       .  A
C2552      H2561   1.084       .  S
C2553      C2554   1.402       .  A
C2554      H2562   1.085       .  S
C2563      C2564   1.400       .  A
C2563      C2568   1.400       .  A
C2564      C2565   1.400       .  A
C2564      H2577   1.083       .  S
C2565      C2566   1.416       .  A
C2565      H2578   1.078       .  S
C2566      C2572   1.430       .  A
C2566      C2567   1.422       .  A
C2567      C2569   1.398       .  A
C2567      C2568   1.400       .  A
C2568      H2579   1.085       .  S
C2569      C2570   1.387       .  A
C2569      H2580   1.084       .  S
C2570      C2571   1.398       .  A
C2570      H2581   1.084       .  S
C2571      C2572   1.422       .  A
C2571      C2576   1.400       .  A
C2572      C2573   1.417       .  A
C2573      C2574   1.401       .  A
C2573      H2582   1.078       .  S
C2574      C2575   1.399       .  A
C2574      H2583   1.083       .  S
C2575      C2576   1.399       .  A
C2576      H2584   1.085       .  S
C2585      C2586   1.400       .  A
C2585      C2590   1.399       .  A
C2586      C2587   1.403       .  A
C2586      H2599   1.083       .  S
C2587      C2588   1.418       .  A
C2587      H2600   1.079       .  S
C2588      C2594   1.432       .  A
C2588      C2589   1.422       .  A
C2589      C2591   1.398       .  A
C2589      C2590   1.400       .  A
C2590      H2601   1.085       .  S
C2591      C2592   1.386       .  A
C2591      H2602   1.084       .  S
C2592      C2593   1.398       .  A
C2592      H2603   1.084       .  S
C2593      C2594   1.423       .  A
C2593      C2598   1.401       .  A
C2594      C2595   1.416       .  A
C2595      C2596   1.401       .  A
C2595      H2604   1.079       .  S
C2596      C2597   1.401       .  A
C2596      H2605   1.083       .  S
C2597      C2598   1.398       .  A
C2598      H2606   1.085       .  S
C2607      C2608   1.404       .  A
C2607      C2612   1.401       .  A
C2608      C2609   1.395       .  A
C2608      H2621   1.083       .  S
C2609      C2610   1.412       .  A
C2609      H2622   1.078       .  S
C2610      C2616   1.431       .  A
C2610      C2611   1.424       .  A
C2611      C2613   1.398       .  A
C2611      C2612   1.407       .  A
C2612      H2623   1.084       .  S
C2613      C2614   1.389       .  A
C2613      H2624   1.084       .  S
C2614      C2615   1.400       .  A
C2614      H2625   1.084       .  S
C2615      C2616   1.420       .  A
C2615      C2620   1.403       .  A
C2616      C2617   1.418       .  A
C2617      C2618   1.400       .  A
C2617      H2626   1.078       .  S
C2618      C2619   1.400       .  A
C2618      H2627   1.083       .  S
C2619      C2620   1.405       .  A
C2620      H2628   1.085       .  S
C2629      C2630   1.401       .  A
C2629      C2634   1.403       .  A
C2630      C2631   1.395       .  A
C2630      H2643   1.083       .  S
C2631      C2632   1.414       .  A
C2631      H2644   1.078       .  S
C2632      C2638   1.428   1_556  A
C2632      C2633   1.422       .  A
C2633      C2635   1.400       .  A
C2633      C2634   1.404       .  A
C2634      H2645   1.084       .  S
C2635      C2636   1.389   1_556  A
C2635      H2646   1.084       .  S
C2636      C2637   1.399       .  A
C2636      H2647   1.084       .  S
C2637      C2638   1.422       .  A
C2637      C2642   1.403       .  A
C2638      C2639   1.414       .  A
C2639      C2640   1.394       .  A
C2639      H2648   1.078       .  S
C2640      C2641   1.401       .  A
C2640      H2649   1.083       .  S
C2641      C2642   1.402       .  A
C2642      H2650   1.085       .  S
C2651      C2652   1.400       .  A
C2651      C2656   1.403       .  A
C2652      C2653   1.400       .  A
C2652      H2665   1.083       .  S
C2653      C2654   1.416       .  A
C2653      H2666   1.078       .  S
C2654      C2660   1.431       .  A
C2654      C2655   1.421       .  A
C2655      C2657   1.400       .  A
C2655      C2656   1.406       .  A
C2656      H2667   1.085       .  S
C2657      C2658   1.391       .  A
C2657      H2668   1.084       .  S
C2658      C2659   1.400       .  A
C2658      H2669   1.084       .  S
C2659      C2660   1.423       .  A
C2659      C2664   1.407       .  A
C2660      C2661   1.415       .  A
C2661      C2662   1.398       .  A
C2661      H2670   1.078       .  S
C2662      C2663   1.400       .  A
C2662      H2671   1.083       .  S
C2663      C2664   1.402       .  A
C2664      H2672   1.085       .  S
C2673      C2674   1.400       .  A
C2673      C2678   1.403       .  A
C2674      C2675   1.400       .  A
C2674      H2687   1.083       .  S
C2675      C2676   1.417       .  A
C2675      H2688   1.077       .  S
C2676      C2682   1.433       .  A
C2676      C2677   1.422       .  A
C2677      C2679   1.400       .  A
C2677      C2678   1.407       .  A
C2678      H2689   1.084       .  S
C2679      C2680   1.391       .  A
C2679      H2690   1.084       .  S
C2680      C2681   1.400       .  A
C2680      H2691   1.084       .  S
C2681      C2682   1.424       .  A
C2681      C2686   1.409       .  A
C2682      C2683   1.414       .  A
C2683      C2684   1.398       .  A
C2683      H2692   1.077       .  S
C2684      C2685   1.401       .  A
C2684      H2693   1.084       .  S
C2685      C2686   1.401       .  A
C2686      H2694   1.084       .  S
C2695      C2696   1.403       .  A
C2695      C2700   1.403       .  A
C2696      C2697   1.402       .  A
C2696      H2709   1.083       .  S
C2697      C2698   1.416       .  A
C2697      H2710   1.078       .  S
C2698      C2704   1.435       .  A
C2698      C2699   1.422       .  A
C2699      C2701   1.399       .  A
C2699      C2700   1.406       .  A
C2700      H2711   1.084       .  S
C2701      C2702   1.389       .  A
C2701      H2712   1.084       .  S
C2702      C2703   1.399       .  A
C2702      H2713   1.084       .  S
C2703      C2704   1.423       .  A
C2703      C2708   1.407       .  A
C2704      C2705   1.415       .  A
C2705      C2706   1.401       .  A
C2705      H2714   1.078       .  S
C2706      C2707   1.404       .  A
C2706      H2715   1.083       .  S
C2707      C2708   1.403       .  A
C2708      H2716   1.084       .  S
C2717      C2718   1.401       .  A
C2717      C2722   1.403       .  A
C2718      C2719   1.394       .  A
C2718      H2731   1.083       .  S
C2719      C2720   1.414       .  A
C2719      H2732   1.077       .  S
C2720      C2726   1.429   1_556  A
C2720      C2721   1.422       .  A
C2721      C2723   1.400       .  A
C2721      C2722   1.406       .  A
C2722      H2733   1.084       .  S
C2723      C2724   1.391   1_556  A
C2723      H2734   1.084       .  S
C2724      C2725   1.400       .  A
C2724      H2735   1.084       .  S
C2725      C2726   1.423       .  A
C2725      C2730   1.407       .  A
C2726      C2727   1.413       .  A
C2727      C2728   1.393       .  A
C2727      H2736   1.077       .  S
C2728      C2729   1.402       .  A
C2728      H2737   1.083       .  S
C2729      C2730   1.403       .  A
C2730      H2738   1.084       .  S
C2739      C2740   1.400       .  A
C2739      C2744   1.400       .  A
C2740      C2741   1.402       .  A
C2740      H2753   1.083       .  S
C2741      C2742   1.417       .  A
C2741      H2754   1.078       .  S
C2742      C2748   1.432       .  A
C2742      C2743   1.422       .  A
C2743      C2745   1.399       .  A
C2743      C2744   1.402       .  A
C2744      H2755   1.085       .  S
C2745      C2746   1.388       .  A
C2745      H2756   1.084       .  S
C2746      C2747   1.399       .  A
C2746      H2757   1.084       .  S
C2747      C2748   1.424       .  A
C2747      C2752   1.405       .  A
C2748      C2749   1.415       .  A
C2749      C2750   1.400       .  A
C2749      H2758   1.078       .  S
C2750      C2751   1.401       .  A
C2750      H2759   1.083       .  S
C2751      C2752   1.399       .  A
C2752      H2760   1.085       .  S
C2761      C2762   1.401       .  A
C2761      C2766   1.397       .  A
C2762      C2763   1.398       .  A
C2762      H2775   1.084       .  S
C2763      C2764   1.414   1_565  A
C2763      H2776   1.078   1_565  S
C2764      C2770   1.430       .  A
C2764      C2765   1.424       .  A
C2765      C2767   1.398       .  A
C2765      C2766   1.403   1_545  A
C2766      H2777   1.085       .  S
C2767      C2768   1.387       .  A
C2767      H2778   1.084       .  S
C2768      C2769   1.399       .  A
C2768      H2779   1.084       .  S
C2769      C2770   1.421       .  A
C2769      C2774   1.399       .  A
C2770      C2771   1.419       .  A
C2771      C2772   1.402       .  A
C2771      H2780   1.078       .  S
C2772      C2773   1.398       .  A
C2772      H2781   1.083       .  S
C2773      C2774   1.400       .  A
C2774      H2782   1.085       .  S
C2783      C2784   1.401       .  A
C2783      C2788   1.402       .  A
C2784      C2785   1.404       .  A
C2784      H2797   1.083       .  S
C2785      C2786   1.418       .  A
C2785      H2798   1.078       .  S
C2786      C2792   1.435       .  A
C2786      C2787   1.422       .  A
C2787      C2789   1.399       .  A
C2787      C2788   1.404       .  A
C2788      H2799   1.085       .  S
C2789      C2790   1.389       .  A
C2789      H2800   1.084       .  S
C2790      C2791   1.399       .  A
C2790      H2801   1.084       .  S
C2791      C2792   1.423       .  A
C2791      C2796   1.405       .  A
C2792      C2793   1.416       .  A
C2793      C2794   1.403       .  A
C2793      H2802   1.078       .  S
C2794      C2795   1.402       .  A
C2794      H2803   1.083       .  S
C2795      C2796   1.401       .  A
C2796      H2804   1.085       .  S
C2805      C2806   1.403       .  A
C2805      C2810   1.403       .  A
C2806      C2807   1.397       .  A
C2806      H2819   1.083       .  S
C2807      C2808   1.413       .  A
C2807      H2820   1.077       .  S
C2808      C2814   1.434       .  A
C2808      C2809   1.425       .  A
C2809      C2811   1.400       .  A
C2809      C2810   1.412       .  A
C2810      H2821   1.084       .  S
C2811      C2812   1.392       .  A
C2811      H2822   1.084       .  S
C2812      C2813   1.401       .  A
C2812      H2823   1.084       .  S
C2813      C2814   1.420       .  A
C2813      C2818   1.406       .  A
C2814      C2815   1.418       .  A
C2815      C2816   1.402       .  A
C2815      H2824   1.077       .  S
C2816      C2817   1.399       .  A
C2816      H2825   1.083       .  S
C2817      C2818   1.404       .  A
C2818      H2826   1.085       .  S
C2827      C2828   1.401       .  A
C2827      C2832   1.402       .  A
C2828      C2829   1.402       .  A
C2828      H2841   1.083       .  S
C2829      C2830   1.418       .  A
C2829      H2842   1.077       .  S
C2830      C2836   1.431       .  A
C2830      C2831   1.420       .  A
C2831      C2833   1.398       .  A
C2831      C2832   1.398       .  A
C2832      H2843   1.084       .  S
C2833      C2834   1.386       .  A
C2833      H2844   1.084       .  S
C2834      C2835   1.397       .  A
C2834      H2845   1.084       .  S
C2835      C2836   1.424       .  A
C2835      C2840   1.403       .  A
C2836      C2837   1.414       .  A
C2837      C2838   1.398       .  A
C2837      H2846   1.077       .  S
C2838      C2839   1.404       .  A
C2838      H2847   1.083       .  S
C2839      C2840   1.399       .  A
C2840      H2848   1.084       .  S
