geometry optimzed in LAMMPS
_audit_creation_date              2020-12-01 
_audit_creation_method            'lammps2cif' 
_symmetry_space_group_name_H-M    'P1' 
_symmetry_Int_Tables_number       1 
_symmetry_cell_setting            triclinic 
loop_ 
_symmetry_equiv_pos_as_xyz 
  x,y,z 
_cell_length_a                    49.83529312 
_cell_length_b                    49.23649416230047 
_cell_length_c                    48.52733971892659 
_cell_angle_alpha                 89.79753136349076 
_cell_angle_beta                  89.59542145208007 
_cell_angle_gamma                 89.36326358519403 
loop_ 
_atom_site_label 
_atom_site_type_symbol 
_atom_site_fract_x 
_atom_site_fract_y 
_atom_site_fract_z 
_atom_site_charge 
Zn1        Zn  0.97600598  0.02313743  0.96673060     1.49700
Zn2        Zn  0.02810179  0.97752296  0.96656814     1.49400
Zn3        Zn  0.02413056  0.02638981  0.01280258     1.49100
Zn4        Zn  0.97915113  0.97412929  0.01275673     1.49500
O5          O  0.00183314  0.00027093  0.98981119    -1.83900
O6          O  0.98440520  0.01383686  0.92528243    -0.74500
O7          O  0.06944748  0.98397674  0.97867343    -0.74300
O8          O  0.01470116  0.06798004  0.00311145    -0.73800
O9          O  0.02254920  0.98934961  0.92549251    -0.74500
O10         O  0.98332997  0.06556468  0.97086463    -0.74100
O11         O  0.06677475  0.01902264  0.00745547    -0.74700
O12         O  0.98808541  0.98250476  0.05463543    -0.74100
O13         O  0.01866809  0.93505707  0.96800323    -0.74800
O14         O  0.01398345  0.01941653  0.05437338    -0.74200
O15         O  0.98781393  0.93252429  0.00128246    -0.74700
O16         O  0.93660783  0.98113532  0.00764967    -0.74600
O17         O  0.93454039  0.01562040  0.97800143    -0.74400
C18         C  0.00392151  0.00205174  0.91233234     0.77400
C19         C  0.08122539  0.00141572  0.99419402     0.77900
C20         C  0.99867901  0.07992347  0.98608547     0.76800
C21         C  0.00062581  0.00130448  0.06762648     0.77200
C22         C  0.00274087  0.92067013  0.98293979     0.78400
C23         C  0.92246444  0.99851470  0.99394119     0.77400
C24         C  0.99517317  0.97474303  0.17211970     0.30300
C25         C  0.99715651  0.03168272  0.17029758     0.30300
C26         C  0.01893039  0.98853357  0.18664238    -0.05900
C27         C  0.99726208  0.98796366  0.14244238    -0.06700
C28         C  0.97062567  0.99037399  0.18366497    -0.06600
C29         C  0.01942377  0.01689270  0.18664956    -0.05900
C30         C  0.99852555  0.01673465  0.14181963    -0.06700
C31         C  0.97185639  0.01875328  0.18378914    -0.06600
C32         C  0.04186093  0.02430071  0.20140440    -0.32000
N33         N  0.05567270  0.00155852  0.20875725     0.14500
C34         C  0.04171844  0.97964492  0.20015089    -0.32000
H35         H  0.04814015  0.95873162  0.20276916     0.16500
C36         C  0.00035001  0.02450097  0.11419534    -0.31000
N37         N  0.99972443  0.00201613  0.09779836     0.13300
C38         C  0.99773907  0.97993972  0.11470208    -0.30900
C39         C  0.94933586  0.02749391  0.19838384    -0.31200
N40         N  0.93353337  0.00600337  0.20428897     0.13800
H41         H  0.94491801  0.04774078  0.20564407     0.16400
C42         C  0.94657947  0.98312163  0.19591274    -0.31200
H43         H  0.93915055  0.96270128  0.19858210     0.16400
H44         H  0.99685644  0.95966554  0.10663471     0.16400
H45         H  0.04841242  0.04469076  0.20563600     0.16500
H46         H  0.00154070  0.04515999  0.10663366     0.16400
C47         C  0.03404872  0.99562053  0.80951446     0.30300
C48         C  0.97739444  0.00190840  0.80890403     0.30300
C49         C  0.01742931  0.97116022  0.80076779    -0.05900
C50         C  0.02001772  0.00158613  0.83824991    -0.06700
C51         C  0.02195189  0.01837733  0.79197529    -0.06600
C52         C  0.98944425  0.97446140  0.80022665    -0.05900
C53         C  0.99132072  0.00484440  0.83794342    -0.06700
C54         C  0.99411449  0.02189215  0.79196370    -0.06600
C55         C  0.97901431  0.95101334  0.79007799    -0.32000
N56         N  0.99955260  0.93359052  0.78487531     0.14500
C57         C  0.02303911  0.94549220  0.79144437    -0.32000
H58         H  0.04274696  0.93638421  0.78873436     0.16500
C59         C  0.98321423  0.00602081  0.86549520    -0.31000
N60         N  0.00486835  0.00309093  0.88227519     0.13300
C61         C  0.02710871  0.99980099  0.86598444    -0.30900
C62         C  0.98885386  0.04582968  0.77836385    -0.31200
N63         N  0.01254253  0.05632193  0.76988415     0.13800
H64         H  0.96955085  0.05599005  0.77675135     0.16400
C65         C  0.03276723  0.03959117  0.77767885    -0.31200
H66         H  0.05391086  0.04381390  0.77513310     0.16400
H67         H  0.04681361  0.99518377  0.87396223     0.16400
H68         H  0.95818358  0.94748737  0.78537512     0.16500
H69         H  0.96295029  0.00724919  0.87328297     0.16400
C70         C  0.18323415  0.97175690  0.00393241     0.30300
C71         C  0.18205492  0.02874901  0.01269669     0.30300
C72         C  0.20083192  0.98961312  0.98550868    -0.05900
C73         C  0.15477346  0.98647546  0.99945355    -0.06700
C74         C  0.18917304  0.98224689  0.03301850    -0.06600
C75         C  0.20054408  0.01736505  0.99035886    -0.05900
C76         C  0.15419379  0.01541187  0.00387898    -0.06700
C77         C  0.18856437  0.01034325  0.03757986    -0.06600
C78         C  0.21468850  0.02951199  0.96952754    -0.32000
N79         N  0.22324047  0.01017648  0.95179130     0.14500
C80         C  0.21446868  0.98572987  0.96102874    -0.32000
H81         H  0.21605712  0.96686502  0.94971404     0.16500
C82         C  0.12692088  0.02316687  0.00264028    -0.31000
N83         N  0.11100202  0.00128376  0.99675430     0.13300
C84         C  0.12793438  0.97908296  0.99482524    -0.30900
C85         C  0.19536714  0.01412972  0.06481095    -0.31200
N86         N  0.20009780  0.98941887  0.07642843     0.13800
H87         H  0.19755067  0.03338820  0.07519430     0.16400
C88         C  0.19631423  0.96993945  0.05733053    -0.31200
H89         H  0.19963683  0.94841643  0.06064116     0.16400
H90         H  0.12104858  0.95862359  0.99150623     0.16400
H91         H  0.21668145  0.05115714  0.96621812     0.16500
H92         H  0.11915231  0.04340524  0.00648263     0.16400
C93         C  0.99618668  0.18330949  0.01047479     0.30300
C94         C  0.99786661  0.18214194  0.95254331     0.30300
C95         C  0.02098837  0.19598250  0.99593166    -0.05900
C96         C  0.99607616  0.15424712  0.99683857    -0.06700
C97         C  0.97336367  0.19819947  0.99482163    -0.06600
C98         C  0.02176940  0.19423999  0.96725177    -0.05900
C99         C  0.99665307  0.15335524  0.96744557    -0.06700
C100        C  0.97400254  0.19640926  0.96621068    -0.06600
C101        C  0.04571755  0.20428148  0.95811333    -0.32000
N102        N  0.05972095  0.21238412  0.98016598     0.14500
C103        C  0.04474435  0.20848071  0.00317707    -0.32000
H104        H  0.05162344  0.21374263  0.02348051     0.16500
C105        C  0.99718329  0.12554534  0.96077283    -0.31000
N106        N  0.99765417  0.10987943  0.98431266     0.13300
C107        C  0.99717172  0.12738793  0.00617457    -0.30900
C108        C  0.95250098  0.21065293  0.95607037    -0.31200
N109        N  0.93870043  0.22179029  0.97733341     0.13800
H110        H  0.94722659  0.21266709  0.93455802     0.16400
C111        C  0.95159004  0.21481291  0.00099733    -0.31200
H112        H  0.94525013  0.22116048  0.02121658    -0.24400
H113        H  0.99757538  0.12110042  0.02755966     0.16400
H114        H  0.05287960  0.20481425  0.93701062     0.16500
H115        H  0.99793352  0.11726658  0.94017979     0.16400
C116        C  0.82212355  0.03230301  0.01165769     0.30300
C117        C  0.81955053  0.97467903  0.00545466     0.30300
C118        C  0.80386666  0.02070797  0.98959870    -0.05900
C119        C  0.84995121  0.01681544  0.00390314    -0.06700
C120        C  0.81351054  0.01532537  0.03692820    -0.06600
C121        C  0.80250276  0.99260768  0.98620122    -0.05900
C122        C  0.84853531  0.98770142  0.00136592    -0.06700
C123        C  0.81274271  0.98701506  0.03393160    -0.06600
C124        C  0.79063423  0.98857782  0.96088098    -0.32000
N125        N  0.78377790  0.01316704  0.94996280     0.14500
C126        C  0.79202696  0.03269013  0.96727780    -0.32000
H127        H  0.79167287  0.05423231  0.96268375     0.16500
C128        C  0.87522795  0.97822054  0.99816732    -0.31000
N129        N  0.89275139  0.99949730  0.99706698     0.13300
C130        C  0.87761296  0.02257747  0.00075171    -0.30900
C131        C  0.80508301  0.97649445  0.05904929    -0.31200
N132        N  0.79945860  0.99716843  0.07645978     0.13800
H133        H  0.80303326  0.95524053  0.06432434     0.16400
C134        C  0.80500703  0.02097957  0.06350011    -0.31200
H135        H  0.80302643  0.04088945  0.07269820     0.16400
H136        H  0.88703311  0.04193095  0.00231943     0.16400
H137        H  0.78928197  0.96940990  0.95014601     0.16500
H138        H  0.88142926  0.95713923  0.99707116     0.16400
C139        C  0.00366497  0.81869659  0.94639257     0.30300
C140        C  0.99858045  0.81745831  0.00440415     0.30300
C141        C  0.02630020  0.80372038  0.96309655    -0.05900
C142        C  0.00230080  0.84736924  0.96176499    -0.06700
C143        C  0.97888907  0.80394576  0.95890312    -0.06600
C144        C  0.02307097  0.80315853  0.99187525    -0.05900
C145        C  0.99941987  0.84614459  0.99078808    -0.06700
C146        C  0.97679881  0.80303646  0.98775716    -0.06600
C147        C  0.04220257  0.78607652  0.00258829    -0.32000
N148        N  0.05854591  0.77754523  0.98209146     0.14500
C149        C  0.04873663  0.78728419  0.95795348    -0.32000
H150        H  0.05802010  0.78244274  0.93849944     0.16500
C151        C  0.99877482  0.87265470  0.00074442    -0.31000
N152        N  0.00187074  0.89075114  0.97962339     0.13300
C153        C  0.00419835  0.87549150  0.95582780    -0.30900
C154        C  0.95620962  0.78562081  0.99405055    -0.31200
N155        N  0.94375017  0.77841713  0.97076224     0.13800
H156        H  0.94947182  0.77886072  0.01405392     0.16400
C157        C  0.95793265  0.78841562  0.94906533    -0.31200
H158        H  0.95253452  0.78525667  0.92783589     0.16400
H159        H  0.00701908  0.88409310  0.93548051     0.16400
H160        H  0.04482944  0.78064885  0.02399698     0.16500
H161        H  0.99688981  0.87827067  0.02222059     0.16400
Zn162      Zn  0.98315821  0.19998713  0.23006301     1.49700
Zn163      Zn  0.01576449  0.25371390  0.23287297     1.49400
Zn164      Zn  0.02513829  0.20666996  0.18383016     1.49100
Zn165      Zn  0.97715055  0.25137792  0.18118295     1.49500
O166        O  0.99977986  0.22832506  0.20642604    -1.83900
O167        O  0.99126189  0.20351140  0.27290445    -0.74500
O168        O  0.05504494  0.24787798  0.22886972    -0.74300
O169        O  0.02105892  0.16499799  0.18538207    -0.73800
O170        O  0.00707243  0.24526659  0.27344071    -0.74500
O171        O  0.98708778  0.16023394  0.21423844    -0.74100
O172        O  0.06201392  0.21696230  0.19587425    -0.74700
O173        O  0.98138023  0.23559606  0.13917562    -0.74100
O174        O  0.00660783  0.29424885  0.22656045    -0.74800
O175        O  0.01896698  0.21145150  0.14304136    -0.74200
O176        O  0.98260152  0.29565109  0.18839804    -0.74700
O177        O  0.93929987  0.24245193  0.19515015    -0.74600
O178        O  0.94504185  0.20961201  0.22669580    -0.74400
C179        C  0.99880203  0.22441303  0.28649595     0.77400
C180        C  0.07066942  0.23289140  0.21442625     0.77900
C181        C  0.00332285  0.14993495  0.19641417     0.76800
C182        C  0.99966508  0.22007094  0.12824158     0.77200
C183        C  0.99374233  0.30826143  0.20872590     0.78400
C184        C  0.93002940  0.22597055  0.21329844     0.77400
N185        N  0.03303616  0.22967287  0.44848228    -0.36300
N186        N  0.03683503  0.23710205  0.51073173    -0.56900
N187        N  0.98046072  0.23656625  0.51478493    -0.36300
N188        N  0.97653974  0.23282560  0.45237984    -0.56900
C189        C  0.05901086  0.23668664  0.45148994     0.27200
C190        C  0.02714541  0.23131454  0.42110123     0.27200
C191        C  0.98636618  0.24268542  0.54142672     0.27200
C192        C  0.95472052  0.24422775  0.51040100     0.27200
C193        C  0.06294801  0.23410449  0.50362240     0.35900
C194        C  0.03532790  0.23498967  0.53868067     0.35900
C195        C  0.97792771  0.22618610  0.42521383     0.35900
C196        C  0.95037658  0.23228447  0.45981758     0.35900
C197        C  0.06992492  0.24221673  0.42564995    -0.21600
C198        C  0.04993548  0.23867536  0.40656971    -0.21600
C199        C  0.96393190  0.25376296  0.55420863    -0.21600
C200        C  0.94407882  0.25494019  0.53468972    -0.21600
C201        C  0.07814561  0.23037089  0.52730050    -0.22700
C202        C  0.06066064  0.23079215  0.54940063    -0.22700
C203        C  0.95244887  0.22137906  0.41535792    -0.22700
C204        C  0.93501524  0.22529614  0.43719115    -0.22700
C205        C  0.07380390  0.23679510  0.47651113    -0.18000
C206        C  0.00172000  0.22658993  0.40886520    -0.18000
C207        C  0.93974881  0.24029667  0.48587159    -0.18000
C208        C  0.01148792  0.23867042  0.55455860    -0.18000
H209        H  0.09030572  0.24812990  0.42094095     0.14900
H210        H  0.05189072  0.24161645  0.38453696     0.14900
H211        H  0.96217010  0.26072045  0.57528507     0.14900
H212        H  0.92392804  0.26267654  0.53815203     0.14900
H213        H  0.09971088  0.22790536  0.52857740     0.13200
H214        H  0.06604472  0.22882806  0.57088764     0.13200
H215        H  0.94695177  0.21618043  0.39451002     0.13200
H216        H  0.91339456  0.22366178  0.43637097     0.13200
H217        H  0.02104625  0.22188909  0.46413427     0.26400
H218        H  0.99214973  0.22534642  0.50105683     0.26400
Zn219      Zn  0.02807170  0.21437507  0.77680932     1.49700
Zn220      Zn  0.98459746  0.21902766  0.73147899     1.49400
Zn221      Zn  0.98983787  0.25925476  0.78652272     1.49100
Zn222      Zn  0.02925525  0.26133281  0.73291439     1.49500
O223        O  0.00678521  0.23925918  0.75625499    -1.83900
O224        O  0.03435051  0.18226885  0.75397138    -0.74500
O225        O  0.94670451  0.22664100  0.74359176    -0.74300
O226        O  0.99706236  0.24169987  0.82654693    -0.73800
O227        O  0.99306464  0.17935497  0.73731125    -0.74500
O228        O  0.01323870  0.20172734  0.81412771    -0.74100
O229        O  0.95095846  0.25294741  0.78071838    -0.74700
O230        O  0.01708129  0.29926967  0.73914575    -0.74100
O231        O  0.99114147  0.22718416  0.69007567    -0.74800
O232        O  0.99589200  0.30109083  0.77967665    -0.74200
O233        O  0.02697993  0.25324011  0.69049502    -0.74700
O234        O  0.06656834  0.26008843  0.74854845    -0.74600
O235        O  0.06216354  0.23212240  0.78426049    -0.74400
C236        C  0.01505528  0.16833703  0.74493828     0.77400
C237        C  0.93657665  0.23983654  0.76381878     0.77900
C238        C  0.00384509  0.21709357  0.83295833     0.76800
C239        C  0.00528207  0.31288029  0.75797055     0.77200
C240        C  0.00953946  0.23984452  0.67696992     0.78400
C241        C  0.07569048  0.24918392  0.77055864     0.77400
N242        N  0.02243291  0.47003199  0.23203591    -0.36300
N243        N  0.96508802  0.47249657  0.23220278    -0.56900
N244        N  0.96703704  0.53390861  0.22981598    -0.36300
N245        N  0.02441320  0.53172481  0.23345861    -0.56900
C246        C  0.01687979  0.44285537  0.23347622     0.27200
C247        C  0.04723103  0.47404769  0.24290477     0.27200
C248        C  0.94056100  0.53039836  0.23583070     0.27200
C249        C  0.97196714  0.56116977  0.22779238     0.27200
C250        C  0.96751353  0.44534812  0.22673809     0.35900
C251        C  0.93846143  0.47867779  0.23417053     0.35900
C252        C  0.05089183  0.52527102  0.23611486     0.35900
C253        C  0.02232145  0.55860315  0.22645210     0.35900
C254        C  0.03870021  0.42941790  0.24479935    -0.21600
C255        C  0.05738269  0.44889958  0.25126724    -0.21600
C256        C  0.92837834  0.55589178  0.23706099    -0.21600
C257        C  0.94780840  0.57500165  0.23137581    -0.21600
C258        C  0.94216886  0.43428698  0.22512888    -0.22700
C259        C  0.92394389  0.45509915  0.23021016    -0.22700
C260        C  0.06579405  0.54841153  0.23079208    -0.22700
C261        C  0.04788722  0.56927660  0.22468370    -0.22700
C262        C  0.99219257  0.42996846  0.22608445    -0.18000
C263        C  0.06194319  0.49918436  0.24401588    -0.18000
C264        C  0.99766028  0.57400083  0.22363646    -0.18000
C265        C  0.92662576  0.50504402  0.23925995    -0.18000
H266        H  0.04063221  0.40789895  0.24901771     0.14900
H267        H  0.07647556  0.44477579  0.26098154     0.14900
H268        H  0.90744360  0.56043362  0.24115195     0.14900
H269        H  0.94441133  0.59671537  0.23059325     0.14900
H270        H  0.93729753  0.41321943  0.22163242     0.13200
H271        H  0.90233754  0.45311853  0.23057306     0.13200
H272        H  0.08741385  0.55014532  0.23134112     0.13200
H273        H  0.05313941  0.59006816  0.22003330     0.13200
H274        H  0.01098576  0.48466806  0.22193742     0.26400
H275        H  0.98055810  0.51828376  0.22610877     0.26400
Zn276      Zn  0.97030180  0.74932677  0.22458991     1.49700
Zn277      Zn  0.96712456  0.79939735  0.17775489     1.49400
Zn278      Zn  0.00743802  0.80130264  0.22650250     1.49100
Zn279      Zn  0.01172456  0.75172784  0.17537589     1.49500
O280        O  0.98969477  0.77535553  0.20091020    -1.83900
O281        O  0.93195487  0.75357656  0.21310706    -0.74500
O282        O  0.97251263  0.84036425  0.18263776    -0.74300
O283        O  0.99834111  0.79434034  0.26871917    -0.73800
O284        O  0.92918277  0.78818062  0.18312092    -0.74500
O285        O  0.97444453  0.75690497  0.26621370    -0.74100
O286        O  0.00389687  0.84293207  0.21444474    -0.74700
O287        O  0.04898738  0.75840504  0.18968362    -0.74100
O288        O  0.97564863  0.79637632  0.13753701    -0.74800
O289        O  0.04571400  0.78992076  0.22291306    -0.74200
O290        O  0.00902399  0.76653132  0.13325585    -0.74700
O291        O  0.00630825  0.70797963  0.18195557    -0.74600
O292        O  0.98131977  0.70885272  0.21968347    -0.74400
C293        C  0.91847955  0.76919847  0.19715699     0.77400
C294        C  0.98900436  0.85453819  0.19626691     0.77900
C295        C  0.98612581  0.77472360  0.28081234     0.76800
C296        C  0.05931345  0.77292596  0.20857112     0.77200
C297        C  0.99298120  0.78436942  0.12253774     0.78400
C298        C  0.99489148  0.69509805  0.20205274     0.77400
N299        N  0.01900887  0.75964640  0.44344191    -0.36300
N300        N  0.02168198  0.75345995  0.50532980    -0.56900
N301        N  0.96477972  0.76010418  0.50890527    -0.36300
N302        N  0.96155836  0.76262299  0.44667814    -0.56900
C303        C  0.04512322  0.75246829  0.44669312     0.27200
C304        C  0.01351461  0.75930936  0.41595568     0.27200
C305        C  0.97009878  0.75412186  0.53580047     0.27200
C306        C  0.93816646  0.75672650  0.50497014     0.27200
C307        C  0.04810136  0.75405699  0.49887370     0.35900
C308        C  0.01979720  0.75572218  0.53319609     0.35900
C309        C  0.96401046  0.76750320  0.41911894     0.35900
C310        C  0.93530655  0.76602139  0.45350764     0.35900
C311        C  0.05653227  0.74794857  0.42089649    -0.21600
C312        C  0.03672328  0.75236659  0.40161119    -0.21600
C313        C  0.94648005  0.74740823  0.54917195    -0.21600
C314        C  0.92642861  0.74892592  0.52983263    -0.21600
C315        C  0.06298465  0.75636569  0.52287765    -0.22700
C316        C  0.04510554  0.75743015  0.54448954    -0.22700
C317        C  0.93902606  0.77373836  0.40836075    -0.22700
C318        C  0.92093280  0.77276954  0.42999635    -0.22700
C319        C  0.05949125  0.75119199  0.47201325    -0.18000
C320        C  0.98829435  0.76538436  0.40334788    -0.18000
C321        C  0.92364569  0.76172056  0.48016640    -0.18000
C322        C  0.99561774  0.75483769  0.54875810    -0.18000
H323        H  0.07712958  0.74225629  0.41635993     0.14900
H324        H  0.03915598  0.75052347  0.37951446     0.14900
H325        H  0.94397091  0.74172848  0.57059491     0.14900
H326        H  0.90546224  0.74479353  0.53377006     0.14900
H327        H  0.08459443  0.75707790  0.52472624     0.13200
H328        H  0.05019627  0.75901750  0.56606507     0.13200
H329        H  0.93427275  0.77828964  0.38709996     0.13200
H330        H  0.89953290  0.77641897  0.42851853     0.13200
H331        H  0.00657255  0.76661201  0.45910959     0.26400
H332        H  0.97779848  0.76861043  0.49462252     0.26400
Zn333      Zn  0.02205801  0.73090075  0.72547674     1.49700
Zn334      Zn  0.02893361  0.78067365  0.76895124     1.49400
Zn335      Zn  0.98130853  0.77467608  0.72649392     1.49100
Zn336      Zn  0.98773005  0.73649445  0.78293484     1.49500
O337        O  0.00486801  0.75555177  0.75149344    -1.83900
O338        O  0.06062258  0.73253225  0.73294759    -0.74500
O339        O  0.02484956  0.81653132  0.75013597    -0.74300
O340        O  0.98808251  0.77119266  0.68467406    -0.73800
O341        O  0.06579285  0.76543924  0.76408723    -0.74500
O342        O  0.01608711  0.73647954  0.68325090    -0.74100
O343        O  0.98236080  0.81341544  0.73631996    -0.74700
O344        O  0.94860821  0.73719200  0.77339924    -0.74100
O345        O  0.02187213  0.78862656  0.81054740    -0.74800
O346        O  0.94539966  0.76058526  0.73408836    -0.74200
O347        O  0.99267129  0.75716371  0.82256325    -0.74700
O348        O  0.99675121  0.69453239  0.77936023    -0.74600
O349        O  0.01100969  0.69377949  0.73565601    -0.74400
C350        C  0.07510952  0.74645160  0.74888975     0.77400
C351        C  0.00241095  0.82728496  0.74366605     0.77900
C352        C  0.00195146  0.75427941  0.67060540     0.76800
C353        C  0.93498986  0.74629068  0.75315375     0.77200
C354        C  0.00691683  0.77796201  0.82903380     0.78400
C355        C  0.00293406  0.68142072  0.75721101     0.77400
N356        N  0.03206787  0.46876743  0.73035116    -0.36300
N357        N  0.96930710  0.46945540  0.73244761    -0.56900
N358        N  0.96906083  0.52590721  0.72928359    -0.36300
N359        N  0.03178462  0.52524112  0.73232665    -0.56900
C360        C  0.02644934  0.44351141  0.73990652     0.27200
C361        C  0.05924903  0.47263631  0.73229149     0.27200
C362        C  0.94186317  0.52210226  0.73112751     0.27200
C363        C  0.97444617  0.55127215  0.73835041     0.27200
C364        C  0.97518659  0.44254595  0.73380995     0.35900
C365        C  0.94251545  0.47218077  0.72683648     0.35900
C366        C  0.05866054  0.52249071  0.72677836     0.35900
C367        C  0.02574507  0.55215143  0.73254413     0.35900
C368        C  0.05054034  0.43098150  0.74739706    -0.21600
C369        C  0.07101976  0.44913032  0.74241034    -0.21600
C370        C  0.92985490  0.54576117  0.74056617    -0.21600
C371        C  0.95022561  0.56393406  0.74538613    -0.21600
C372        C  0.95173480  0.42811451  0.72937311    -0.22700
C373        C  0.93134329  0.44673707  0.72462991    -0.22700
C374        C  0.06967331  0.54794402  0.72341896    -0.22700
C375        C  0.04909983  0.56658461  0.72734329    -0.22700
C376        C  0.00075307  0.43038330  0.74036663    -0.18000
C377        C  0.07349032  0.49730696  0.72662199    -0.18000
C378        C  0.00007935  0.56439942  0.73864418    -0.18000
C379        C  0.92778133  0.49737684  0.72606370    -0.18000
H380        H  0.05322889  0.41065325  0.75554234     0.14900
H381        H  0.09209436  0.44567482  0.74656387     0.14900
H382        H  0.90869923  0.54927753  0.74450822     0.14900
H383        H  0.94740177  0.58437205  0.75309597     0.14900
H384        H  0.94940087  0.40629407  0.72961937     0.13200
H385        H  0.91051990  0.44205989  0.72088481     0.13200
H386        H  0.09043819  0.55268632  0.71913726     0.13200
H387        H  0.05116996  0.58842584  0.72640416     0.13200
H388        H  0.01813208  0.48144316  0.72081474     0.26400
H389        H  0.98319556  0.51309840  0.72012693     0.26400
Zn390      Zn  0.75216567  0.48250286  0.74241201     1.49700
Zn391      Zn  0.69943794  0.51837810  0.73857836     1.49400
Zn392      Zn  0.75009851  0.51668141  0.68858926     1.49100
Zn393      Zn  0.70340322  0.47267918  0.69457519     1.49500
O394        O  0.72634155  0.49786524  0.71558985    -1.83900
O395        O  0.74516817  0.49469153  0.78254839    -0.74500
O396        O  0.71060311  0.55602499  0.73124545    -0.74300
O397        O  0.79328516  0.50938653  0.69407494    -0.73800
O398        O  0.70477419  0.51362166  0.78181644    -0.74500
O399        O  0.79316230  0.48811357  0.73414723    -0.74100
O400        O  0.74352974  0.55556357  0.69920608    -0.74700
O401        O  0.70786286  0.47613953  0.65271444    -0.74100
O402        O  0.65875629  0.51506703  0.72557896    -0.74800
O403        O  0.73477562  0.51143298  0.64808154    -0.74200
O404        O  0.66269386  0.48101900  0.69643508    -0.74700
O405        O  0.71143742  0.43539188  0.71061815    -0.74600
O406        O  0.74357984  0.44332258  0.74162221    -0.74400
C407        C  0.72533593  0.50543552  0.79551206     0.77400
C408        C  0.72812435  0.56784815  0.71636217     0.77900
C409        C  0.80654238  0.49878813  0.71433257     0.76800
C410        C  0.71819290  0.49455757  0.63752282     0.77200
C411        C  0.64803271  0.49906378  0.70804417     0.78400
C412        C  0.72748994  0.42734694  0.72954002     0.77400
N413        N  0.73748480  0.46956747  0.01686250    -0.36300
N414        N  0.73895099  0.47407289  0.95659677    -0.56900
N415        N  0.73877973  0.53518723  0.96142423    -0.36300
N416        N  0.74055205  0.53041761  0.02174229    -0.56900
C417        C  0.74117738  0.44274263  0.01035687     0.27200
C418        C  0.73996327  0.47223613  0.04468747     0.27200
C419        C  0.73932745  0.53244539  0.93342511     0.27200
C420        C  0.74286440  0.56192301  0.96785994     0.27200
C421        C  0.73736089  0.44642104  0.95869459     0.35900
C422        C  0.73507166  0.48094378  0.92966265     0.35900
C423        C  0.73802751  0.52372479  0.04891804     0.35900
C424        C  0.74096411  0.55811630  0.01985140     0.35900
C425        C  0.74567486  0.42835158  0.03454506    -0.21600
C426        C  0.74471701  0.44670561  0.05596503    -0.21600
C427        C  0.74353106  0.55793418  0.92193175    -0.21600
C428        C  0.74582593  0.57628074  0.94339516    -0.21600
C429        C  0.73268194  0.43575501  0.93283579    -0.22700
C430        C  0.73120579  0.45733667  0.91466049    -0.22700
C431        C  0.73694627  0.54742090  0.06430503    -0.22700
C432        C  0.73894847  0.56894137  0.04611847    -0.22700
C433        C  0.74009658  0.43047392  0.98347961    -0.18000
C434        C  0.73799604  0.49679194  0.06058506    -0.18000
C435        C  0.74334392  0.57403122  0.99499502    -0.18000
C436        C  0.73581982  0.50782247  0.91774648    -0.18000
H437        H  0.74935433  0.40674909  0.03668303     0.14900
H438        H  0.74755900  0.44173363  0.07749513     0.14900
H439        H  0.74493565  0.56287536  0.90022324     0.14900
H440        H  0.74915288  0.59786426  0.94115493     0.14900
H441        H  0.73040580  0.41456711  0.92758019     0.13200
H442        H  0.72775583  0.45571675  0.89273747     0.13200
H443        H  0.73521309  0.54909822  0.08647871     0.13200
H444        H  0.73881414  0.59020908  0.05167817     0.13200
H445        H  0.73179899  0.48496696  0.00360560     0.26400
H446        H  0.73443109  0.51976366  0.97505489     0.26400
Zn447      Zn  0.73635339  0.19464079  0.99413455     1.49700
Zn448      Zn  0.77021943  0.25188675  0.97231547     1.49400
Zn449      Zn  0.73491219  0.25571941  0.02091461     1.49100
Zn450      Zn  0.78745517  0.21251007  0.02333112     1.49500
O451        O  0.75740365  0.22823454  0.00243933    -1.83900
O452        O  0.73234336  0.19645946  0.95311440    -0.74500
O453        O  0.76233283  0.29462175  0.97257197    -0.74300
O454        O  0.69657206  0.24332340  0.02091623    -0.73800
O455        O  0.75231209  0.23542214  0.94051295    -0.74500
O456        O  0.69641976  0.20000398  0.00796842    -0.74100
O457        O  0.73475450  0.29631235  0.00777666    -0.74700
O458        O  0.78343670  0.22738960  0.06130838    -0.74100
O459        O  0.81015246  0.24778041  0.96864324    -0.74800
O460        O  0.74905294  0.25660590  0.05844469    -0.74200
O461        O  0.82131139  0.22742626  0.00815212    -0.74700
O462        O  0.79338250  0.16963236  0.02246306    -0.74600
O463        O  0.75574404  0.15575337  0.00382817    -0.74400
C464        C  0.73836775  0.21451210  0.93527832     0.77400
C465        C  0.74710033  0.30872748  0.98846931     0.77900
C466        C  0.68381635  0.22160089  0.01583773     0.76800
C467        C  0.76792202  0.24529064  0.07197787     0.77200
C468        C  0.82758684  0.23911985  0.98567871     0.78400
C469        C  0.77898475  0.14995445  0.01400989     0.77400
Zn470      Zn  0.78185913  0.74965890  0.02372683     1.49700
Zn471      Zn  0.73477925  0.75202850  0.98691679     1.49400
Zn472      Zn  0.74002102  0.80786314  0.02150593     1.49100
Zn473      Zn  0.78155520  0.79879519  0.97765442     1.49500
O474        O  0.76001937  0.77729372  0.00323231    -1.83900
O475        O  0.77419511  0.70721639  0.01719949    -0.74500
O476        O  0.69806977  0.76284379  0.99671506    -0.74300
O477        O  0.74493995  0.79687061  0.06038588    -0.73800
O478        O  0.73741373  0.71004056  0.99292283    -0.74500
O479        O  0.77094133  0.75898674  0.06276173    -0.74100
O480        O  0.69744091  0.80332093  0.01632419    -0.74700
O481        O  0.78764433  0.84057154  0.98411282    -0.74100
O482        O  0.73943822  0.75706216  0.94786778    -0.74800
O483        O  0.75737454  0.84866606  0.01621070    -0.74200
O484        O  0.76906407  0.79026291  0.94017124    -0.74700
O485        O  0.81765956  0.78369685  0.97937240    -0.74600
O486        O  0.82202288  0.75495322  0.01450780    -0.74400
C487        C  0.75509262  0.69523609  0.00469388     0.77400
C488        C  0.68499126  0.78217491  0.00769123     0.77900
C489        C  0.75596836  0.77741473  0.07368410     0.76800
C490        C  0.77672146  0.85748653  0.00078113     0.77200
C491        C  0.75329380  0.77185543  0.93195915     0.78400
C492        C  0.83208810  0.76846088  0.99445364     0.77400
N493        N  0.52917138  0.75892576  0.98302496    -0.36300
N494        N  0.52927076  0.75806452  0.04557921    -0.56900
N495        N  0.47207721  0.75433877  0.04592664    -0.36300
N496        N  0.47190210  0.75893663  0.98362698    -0.56900
C497        C  0.55465464  0.76691756  0.98806639     0.27200
C498        C  0.52476161  0.76088666  0.95531470     0.27200
C499        C  0.47631866  0.75389569  0.07373990     0.27200
C500        C  0.44591209  0.76093061  0.04140167     0.27200
C501        C  0.55593710  0.76029643  0.04020776     0.35900
C502        C  0.52639692  0.75150069  0.07279541     0.35900
C503        C  0.47517602  0.75514373  0.95599275     0.35900
C504        C  0.44516468  0.75894985  0.98895241     0.35900
C505        C  0.56673193  0.77354280  0.96302521    -0.21600
C506        C  0.54808335  0.76948224  0.94251714    -0.21600
C507        C  0.45217083  0.75947703  0.08698984    -0.21600
C508        C  0.43323955  0.76425406  0.06677715    -0.21600
C509        C  0.57003516  0.75558145  0.06438838    -0.22700
C510        C  0.55148564  0.74982945  0.08478303    -0.22700
C511        C  0.45033140  0.75282471  0.94373194    -0.22700
C512        C  0.43143382  0.75556618  0.96438372    -0.22700
C513        C  0.56809375  0.76694329  0.01417176    -0.18000
C514        C  0.50010123  0.75575299  0.94133499    -0.18000
C515        C  0.43252948  0.76250091  0.01530438    -0.18000
C516        C  0.50143872  0.74906858  0.08745118    -0.18000
H517        H  0.58706092  0.78041843  0.95974545     0.14900
H518        H  0.55118707  0.77308024  0.92071802     0.14900
H519        H  0.44855387  0.76053311  0.10896540     0.14900
H520        H  0.41231033  0.76921562  0.07044466     0.14900
H521        H  0.59155756  0.75611266  0.06711147     0.13200
H522        H  0.55597869  0.74554855  0.10615746     0.13200
H523        H  0.44617606  0.75011213  0.92206030     0.13200
H524        H  0.40993128  0.75493650  0.96155286     0.13200
H525        H  0.51644703  0.75035848  0.99752302     0.26400
H526        H  0.48557109  0.74822308  0.03079927     0.26400
Zn527      Zn  0.26030319  0.80459701  0.01240391     1.49700
Zn528      Zn  0.26888721  0.74884654  0.97853537     1.49400
Zn529      Zn  0.22270218  0.74604229  0.01664543     1.49100
Zn530      Zn  0.21805850  0.79368249  0.97001973     1.49500
O531        O  0.24202409  0.77335733  0.99472907    -1.83900
O532        O  0.30245137  0.79962837  0.00975255    -0.74500
O533        O  0.26436923  0.70647280  0.98141707    -0.74300
O534        O  0.22957424  0.75821214  0.05498650    -0.73800
O535        O  0.30526970  0.75769960  0.99298410    -0.74500
O536        O  0.25285450  0.79700723  0.05132875    -0.74100
O537        O  0.23120662  0.70380695  0.01117259    -0.74700
O538        O  0.18211933  0.77581917  0.97065629    -0.74100
O539        O  0.26799259  0.75846154  0.93955766    -0.74800
O540        O  0.18363116  0.75061069  0.00901176    -0.74200
O541        O  0.23500017  0.78913859  0.93284167    -0.74700
O542        O  0.20930136  0.83513163  0.97895992    -0.74600
O543        O  0.24297302  0.84507335  0.00598167    -0.74400
C544        C  0.31638653  0.77826888  0.00370088     0.77400
C545        C  0.24853231  0.69176410  0.99573612     0.77900
C546        C  0.24121488  0.77872142  0.06540772     0.76800
C547        C  0.17078329  0.76166942  0.98930125     0.77200
C548        C  0.25407994  0.77388562  0.92401702     0.78400
C549        C  0.22142930  0.85282262  0.99342090     0.77400
N550        N  0.25487440  0.52738759  0.02042177    -0.36300
N551        N  0.25745554  0.52918584  0.95986589    -0.56900
N552        N  0.25740172  0.46803931  0.95862828    -0.36300
N553        N  0.25458185  0.46634456  0.01906572    -0.56900
C554        C  0.25213578  0.55484458  0.01656570     0.27200
C555        C  0.25269200  0.52182429  0.04791720     0.27200
C556        C  0.26097943  0.47338059  0.93129827     0.27200
C557        C  0.25721843  0.44049817  0.96233266     0.27200
C558        C  0.25630988  0.55653043  0.96451645     0.35900
C559        C  0.26026358  0.52524293  0.93219514     0.35900
C560        C  0.25488367  0.47007740  0.04685240     0.35900
C561        C  0.25434801  0.43903752  0.01433070     0.35900
C562        C  0.24853982  0.56677652  0.04220943    -0.21600
C563        C  0.24892235  0.54622007  0.06173581    -0.21600
C564        C  0.26284176  0.44877118  0.91745150    -0.21600
C565        C  0.26030774  0.42827936  0.93678790    -0.21600
C566        C  0.25821508  0.56997697  0.93944157    -0.22700
C567        C  0.26079808  0.55040173  0.91922120    -0.22700
C568        C  0.25492896  0.44486192  0.05974545    -0.22700
C569        C  0.25452994  0.42543822  0.03937630    -0.22700
C570        C  0.25326449  0.56975139  0.99085661    -0.18000
C571        C  0.25423061  0.49558269  0.06123237    -0.18000
C572        C  0.25454595  0.42584747  0.98793330    -0.18000
C573        C  0.26229175  0.49957576  0.91805865    -0.18000
H574        H  0.24594595  0.58819190  0.04654351     0.14900
H575        H  0.24658216  0.54902931  0.08373072     0.14900
H576        H  0.26561192  0.44575918  0.89553050     0.14900
H577        H  0.26090191  0.40675001  0.93240669     0.14900
H578        H  0.25779358  0.59170022  0.93598003     0.13200
H579        H  0.26273303  0.55432915  0.89734322     0.13200
H580        H  0.25500143  0.44076745  0.08166896     0.13200
H581        H  0.25455982  0.40369365  0.04270865     0.13200
H582        H  0.25947381  0.51321466  0.00547278     0.26400
H583        H  0.25428382  0.48252257  0.97362173     0.26400
Zn584      Zn  0.22312264  0.20080611  0.97265513     1.49700
Zn585      Zn  0.27138124  0.24598049  0.98242777     1.49400
Zn586      Zn  0.22032523  0.25332653  0.01216199     1.49100
Zn587      Zn  0.25793438  0.19622888  0.02384818     1.49500
O588        O  0.24285401  0.22360803  0.99792575    -1.83900
O589        O  0.24380111  0.20230797  0.93660909    -0.74500
O590        O  0.26755846  0.28861026  0.98282818    -0.74300
O591        O  0.18202746  0.24416150  0.00529530    -0.73800
O592        O  0.27463158  0.23391354  0.94394240    -0.74500
O593        O  0.18693195  0.21785187  0.96825695    -0.74100
O594        O  0.22697507  0.29361160  0.99971693    -0.74700
O595        O  0.25300480  0.21552715  0.06000314    -0.74100
O596        O  0.30584945  0.23636860  0.00066776    -0.74800
O597        O  0.22920932  0.25355679  0.05145511    -0.74200
O598        O  0.30033039  0.19578025  0.02034608    -0.74700
O599        O  0.23785205  0.15657140  0.02352124    -0.74600
O600        O  0.21365776  0.16081098  0.98585929    -0.74400
C601        C  0.26328910  0.21703615  0.92821541     0.77400
C602        C  0.24821783  0.30439792  0.98992009     0.77900
C603        C  0.17218292  0.23105053  0.98524849     0.76800
C604        C  0.24312437  0.23847579  0.06734269     0.77200
C605        C  0.31540836  0.21573730  0.01323079     0.78400
C606        C  0.22047772  0.14647585  0.00681183     0.77400
N607        N  0.52680663  0.23878763  0.99090372    -0.36300
N608        N  0.46982785  0.23557599  0.99128917    -0.56900
N609        N  0.46974579  0.24014866  0.05366712    -0.36300
N610        N  0.52694156  0.23909444  0.05333956    -0.56900
C611        C  0.52245528  0.23581283  0.96332503     0.27200
C612        C  0.55267041  0.23157612  0.99604824     0.27200
C613        C  0.44470606  0.23064074  0.04893915     0.27200
C614        C  0.47431961  0.23876369  0.08136495     0.27200
C615        C  0.47287277  0.24135677  0.96393432     0.35900
C616        C  0.44314769  0.23624343  0.99701964     0.35900
C617        C  0.55367212  0.23979947  0.04768018     0.35900
C618        C  0.52350087  0.24622090  0.08032486     0.35900
C619        C  0.54602879  0.22708273  0.95078968    -0.21600
C620        C  0.56492841  0.22424795  0.97129228    -0.21600
C621        C  0.43324237  0.22325420  0.07402483    -0.21600
C622        C  0.45173938  0.22854198  0.09434863    -0.21600
C623        C  0.44788463  0.24581880  0.95234544    -0.22700
C624        C  0.42916199  0.24224429  0.97307273    -0.22700
C625        C  0.56728052  0.24701889  0.07136113    -0.22700
C626        C  0.54830392  0.25149670  0.09172656    -0.22700
C627        C  0.49782666  0.24097810  0.94910852    -0.18000
C628        C  0.56634165  0.23345035  0.02184091    -0.18000
C629        C  0.49847608  0.24612417  0.09517962    -0.18000
C630        C  0.43090923  0.23050944  0.02312301    -0.18000
H631        H  0.54924463  0.22292653  0.92912485     0.14900
H632        H  0.58558209  0.21790395  0.96815654     0.14900
H633        H  0.41333690  0.21528364  0.07743888     0.14900
H634        H  0.44899177  0.22493883  0.11619505     0.14900
H635        H  0.44347582  0.25078797  0.93111013     0.13200
H636        H  0.40763044  0.24410751  0.97078556     0.13200
H637        H  0.58873079  0.24917698  0.07369673     0.13200
H638        H  0.55247343  0.25753608  0.11265824     0.13200
H639        H  0.51380952  0.24781086  0.00503685     0.26400
H640        H  0.48187482  0.24955523  0.03907775     0.26400
Zn641      Zn  0.47789134  0.76738747  0.76106747     1.49700
Zn642      Zn  0.46960881  0.71911516  0.71748848     1.49400
Zn643      Zn  0.51520407  0.75664429  0.70730208     1.49100
Zn644      Zn  0.51336997  0.71771043  0.76478257     1.49500
O645        O  0.49480991  0.74018738  0.73792647    -1.83900
O646        O  0.44021401  0.77188763  0.74816225    -0.74500
O647        O  0.48113623  0.70606554  0.67856661    -0.74300
O648        O  0.51043506  0.79910740  0.70856346    -0.73800
O649        O  0.43732435  0.74233384  0.71380033    -0.74500
O650        O  0.49379086  0.80256500  0.75105746    -0.74100
O651        O  0.51209184  0.73602807  0.66819965    -0.74700
O652        O  0.55194324  0.72366707  0.75647588    -0.74100
O653        O  0.46237293  0.68553171  0.73869893    -0.74800
O654        O  0.55250076  0.75108248  0.71939515    -0.74200
O655        O  0.50322592  0.67947592  0.75612442    -0.74700
O656        O  0.50742935  0.72643831  0.80678602    -0.74600
O657        O  0.48162871  0.76291879  0.80391103    -0.74400
C658        C  0.42782760  0.76222923  0.72760184     0.77400
C659        C  0.49812720  0.71530530  0.66124709     0.77900
C660        C  0.50415547  0.81345964  0.72981910     0.76800
C661        C  0.56421761  0.73803509  0.73861000     0.77200
C662        C  0.48144731  0.67004668  0.74662831     0.78400
C663        C  0.49475585  0.74589356  0.81874425     0.77400
Zn664      Zn  0.25035880  0.51805524  0.74128022     1.49700
Zn665      Zn  0.30093032  0.51995931  0.69396321     1.49400
Zn666      Zn  0.30194938  0.47976023  0.74170291     1.49100
Zn667      Zn  0.25176995  0.47845883  0.69081688     1.49500
O668        O  0.27586440  0.49852481  0.71658965    -1.83900
O669        O  0.25999564  0.55699808  0.73555166    -0.74500
O670        O  0.34135925  0.51075548  0.69644449    -0.74300
O671        O  0.29555536  0.48835911  0.78381875    -0.73800
O672        O  0.29395488  0.55798030  0.70475746    -0.74500
O673        O  0.25631517  0.50980359  0.78248696    -0.74100
O674        O  0.34338059  0.48074565  0.73013367    -0.74700
O675        O  0.25843999  0.44022664  0.70444296    -0.74100
O676        O  0.29628435  0.51498071  0.65336691    -0.74800
O677        O  0.29041661  0.44211597  0.73710335    -0.74200
O678        O  0.26697147  0.48194399  0.64893371    -0.74700
O679        O  0.20831913  0.48587212  0.69710487    -0.74600
O680        O  0.20935877  0.51183043  0.73394365    -0.74400
C681        C  0.27744440  0.56963558  0.72115348     0.77400
C682        C  0.35510130  0.49412486  0.71086725     0.77900
C683        C  0.27535991  0.49907921  0.79641598     0.76800
C684        C  0.27357118  0.42927372  0.72265435     0.77200
C685        C  0.28485156  0.49770641  0.63822614     0.78400
C686        C  0.19546534  0.49881345  0.71636787     0.77400
Zn687      Zn  0.47722258  0.28800937  0.73007466     1.49700
Zn688      Zn  0.51639096  0.24309947  0.71186864     1.49400
Zn689      Zn  0.52550083  0.27452259  0.77234270     1.49100
Zn690      Zn  0.48235445  0.23327834  0.76752986     1.49500
O691        O  0.50073710  0.26015452  0.74532763    -1.83900
O692        O  0.48419507  0.29845140  0.68901370    -0.74500
O693        O  0.55556557  0.24414527  0.71774383    -0.74300
O694        O  0.52414665  0.31505236  0.76754924    -0.73800
O695        O  0.50997649  0.26473385  0.67408097    -0.74500
O696        O  0.48288119  0.32253201  0.75108747    -0.74100
O697        O  0.56184890  0.26062338  0.76021906    -0.74700
O698        O  0.48468260  0.23658718  0.81036770    -0.74100
O699        O  0.50876510  0.20142800  0.71253317    -0.74800
O700        O  0.51793107  0.26523913  0.81429269    -0.74200
O701        O  0.49591525  0.19667119  0.75639506    -0.74700
O702        O  0.44461474  0.23457160  0.75545381    -0.74600
O703        O  0.43989812  0.27323263  0.73202530    -0.74400
C704        C  0.49727642  0.28712466  0.66938585     0.77400
C705        C  0.57061272  0.25000043  0.73785827     0.77900
C706        C  0.50513560  0.33108057  0.76037664     0.76800
C707        C  0.50057337  0.24978774  0.82580005     0.77200
C708        C  0.50386242  0.18642688  0.73367149     0.78400
C709        C  0.43037424  0.25106064  0.74146255     0.77400
Zn710      Zn  0.52524205  0.29303540  0.31919631     1.49700
Zn711      Zn  0.48189579  0.29371307  0.27261374     1.49400
Zn712      Zn  0.51930835  0.24192292  0.27458291     1.49100
Zn713      Zn  0.48231455  0.24823256  0.32772800     1.49500
O714        O  0.50161429  0.26905173  0.29861372    -1.83900
O715        O  0.51636516  0.33289717  0.31546714    -0.74500
O716        O  0.48899543  0.28498502  0.22928271    -0.74300
O717        O  0.55820109  0.25180066  0.27529443    -0.73800
O718        O  0.48436831  0.33554344  0.28425925    -0.74500
O719        O  0.56129447  0.28736388  0.30362109    -0.74100
O720        O  0.50933798  0.24522010  0.23352454    -0.74700
O721        O  0.48939260  0.20515918  0.32540640    -0.74100
O722        O  0.44452317  0.28201427  0.27988569    -0.74800
O723        O  0.51266648  0.20182113  0.28652355    -0.74200
O724        O  0.44429956  0.25292713  0.31581970    -0.74700
O725        O  0.48708954  0.26578152  0.36776389    -0.74600
O726        O  0.52420742  0.28921101  0.36090879    -0.74400
C727        C  0.49938202  0.34705106  0.30215122     0.77400
C728        C  0.49905535  0.26344175  0.21796567     0.77900
C729        C  0.57161016  0.27070843  0.28651679     0.76800
C730        C  0.50061774  0.19024886  0.30673562     0.77200
C731        C  0.43258572  0.26588482  0.29642505     0.78400
C732        C  0.50580427  0.28094101  0.37711732     0.77400
Zn733      Zn  0.71255372  0.46971393  0.28656107     1.49700
Zn734      Zn  0.71264461  0.51054987  0.23642778     1.49400
Zn735      Zn  0.75497914  0.51357126  0.29194988     1.49100
Zn736      Zn  0.76120799  0.47350453  0.23954324     1.49500
O737        O  0.73541443  0.49230397  0.26363898    -1.83900
O738        O  0.67574701  0.46714232  0.27058643    -0.74500
O739        O  0.72014726  0.54882954  0.24215488    -0.74300
O740        O  0.73779953  0.51133339  0.33379581    -0.73800
O741        O  0.67382061  0.50415260  0.24419188    -0.74500
O742        O  0.70494005  0.48278389  0.32664821    -0.74100
O743        O  0.74720563  0.55100059  0.27884733    -0.74700
O744        O  0.79812941  0.48855180  0.24530272    -0.74100
O745        O  0.71930153  0.50293604  0.19511195    -0.74800
O746        O  0.79777813  0.50985658  0.28565552    -0.74200
O747        O  0.75460759  0.47566574  0.19670265    -0.74700
O748        O  0.76226057  0.43553653  0.25417587    -0.74600
O749        O  0.73111936  0.43395188  0.28738089    -0.74400
C750        C  0.66243830  0.48501332  0.25724438     0.77400
C751        C  0.73424768  0.56201470  0.25913039     0.77900
C752        C  0.71667244  0.49903521  0.34290281     0.76800
C753        C  0.81048809  0.50138293  0.26397752     0.77200
C754        C  0.73728055  0.48902364  0.18259253     0.78400
C755        C  0.75022088  0.42299018  0.27369419     0.77400
Zn756      Zn  0.47890286  0.74920628  0.26454010     1.49700
Zn757      Zn  0.51146752  0.74369818  0.31883197     1.49400
Zn758      Zn  0.46741504  0.69891379  0.30983666     1.49100
Zn759      Zn  0.51501126  0.69633656  0.26573638     1.49500
O760        O  0.49367371  0.72165664  0.28993218    -1.83900
O761        O  0.48413532  0.78907463  0.27586495    -0.74500
O762        O  0.50583703  0.72619901  0.35861116    -0.74300
O763        O  0.43089970  0.70961061  0.29538161    -0.73800
O764        O  0.50287254  0.78669896  0.31678857    -0.74500
O765        O  0.44019593  0.74258095  0.26533890    -0.74100
O766        O  0.46944117  0.70162973  0.35196482    -0.74700
O767        O  0.51064493  0.65425387  0.27894432    -0.74100
O768        O  0.55011423  0.73982920  0.30786423    -0.74800
O769        O  0.47446379  0.65808440  0.30542020    -0.74200
O770        O  0.55265264  0.70861419  0.27416869    -0.74700
O771        O  0.50953599  0.70470298  0.22169099    -0.74600
O772        O  0.49019303  0.74525718  0.22395689    -0.74400
C773        C  0.49299947  0.80118645  0.29706795     0.77400
C774        C  0.48743820  0.71052265  0.36806323     0.77900
C775        C  0.42349439  0.72720307  0.27748809     0.76800
C776        C  0.49278309  0.64319296  0.29465438     0.77200
C777        C  0.56344478  0.72586435  0.29023156     0.78400
C778        C  0.50071760  0.72635720  0.20939081     0.77400
Zn779      Zn  0.27796785  0.52063918  0.28112596     1.49700
Zn780      Zn  0.23309531  0.48060607  0.29727493     1.49400
Zn781      Zn  0.22825174  0.51001911  0.23810756     1.49100
Zn782      Zn  0.27304949  0.47011688  0.24044427     1.49500
O783        O  0.25325188  0.49486274  0.26476589    -1.83900
O784        O  0.28632017  0.51519696  0.32309258    -0.74500
O785        O  0.19033723  0.48790320  0.29134230    -0.74300
O786        O  0.23001742  0.54884258  0.24277559    -0.73800
O787        O  0.25259372  0.48972726  0.33682329    -0.74500
O788        O  0.26240383  0.55746040  0.27320131    -0.74100
O789        O  0.19075249  0.49996172  0.24706563    -0.74700
O790        O  0.26877543  0.47490858  0.19720745    -0.74100
O791        O  0.23748324  0.44024861  0.29235707    -0.74800
O792        O  0.23473192  0.50355766  0.19684381    -0.74200
O793        O  0.26119738  0.43367402  0.25322095    -0.74700
O794        O  0.31201913  0.47392761  0.24880327    -0.74600
O795        O  0.31401902  0.51686223  0.26305066    -0.74400
C796        C  0.27451853  0.50241228  0.34257566     0.77400
C797        C  0.17783033  0.49304816  0.26857681     0.77900
C798        C  0.24368344  0.56508793  0.25700591     0.76800
C799        C  0.25184915  0.48928237  0.18361391     0.77200
C800        C  0.24800002  0.42488015  0.27400571     0.78400
C801        C  0.32531193  0.49472712  0.25571340     0.77400
N802        N  0.47688655  0.97090829  0.73980810    -0.36300
N803        N  0.47515818  0.02830448  0.73753721    -0.56900
N804        N  0.53698333  0.02897284  0.73929348    -0.36300
N805        N  0.53867834  0.97175017  0.73710540    -0.56900
C806        C  0.44963072  0.97452039  0.73823147     0.27200
C807        C  0.48281304  0.94473108  0.73334579     0.27200
C808        C  0.53092298  0.05485409  0.73184569     0.27200
C809        C  0.56407598  0.02524274  0.73609288     0.27200
C810        C  0.44847779  0.02474727  0.74293006     0.35900
C811        C  0.48007760  0.05528026  0.73905861     0.35900
C812        C  0.53394137  0.94473494  0.73847432     0.35900
C813        C  0.56536554  0.97532989  0.74200196     0.35900
C814        C  0.43815304  0.95004803  0.73131989    -0.21600
C815        C  0.45888356  0.93142888  0.72809401    -0.21600
C816        C  0.55454573  0.06771074  0.72402416    -0.21600
C817        C  0.57531581  0.04920479  0.72694544    -0.21600
C818        C  0.43635701  0.04973461  0.74754028    -0.22700
C819        C  0.45619451  0.06895362  0.74508028    -0.22700
C820        C  0.55798610  0.93111454  0.74381031    -0.22700
C821        C  0.57763125  0.95040221  0.74639903    -0.22700
C822        C  0.43481887  0.99930232  0.74267058    -0.18000
C823        C  0.50875936  0.93170433  0.73395517    -0.18000
C824        C  0.57894653  0.00073478  0.74093142    -0.18000
C825        C  0.50529561  0.06821023  0.73398286    -0.18000
H826        H  0.41703328  0.94606185  0.72852979     0.14900
H827        H  0.45645190  0.91027395  0.72279651     0.14900
H828        H  0.55671479  0.08851139  0.71715065     0.14900
H829        H  0.59626001  0.05285856  0.72237581     0.14900
H830        H  0.41537730  0.05374231  0.75198898     0.13200
H831        H  0.45328649  0.09064507  0.74737855     0.13200
H832        H  0.56118882  0.90942278  0.74570799     0.13200
H833        H  0.59864452  0.94645260  0.75045401     0.13200
H834        H  0.49073265  0.98451885  0.74732204     0.26400
H835        H  0.52361238  0.01583192  0.74877036     0.26400
Zn836      Zn  0.21013561  0.02292881  0.78471153     1.49700
Zn837      Zn  0.20562171  0.96959068  0.75454486     1.49400
Zn838      Zn  0.25680264  0.00921504  0.73713509     1.49100
Zn839      Zn  0.26229332  0.98092283  0.79067763     1.49500
O840        O  0.23354138  0.99547992  0.76694045    -1.83900
O841        O  0.16912689  0.01381220  0.79180480    -0.74500
O842        O  0.20956232  0.96576394  0.71237917    -0.74300
O843        O  0.24492998  0.04731455  0.73035311    -0.73800
O844        O  0.16465985  0.97689742  0.76699345    -0.74500
O845        O  0.21314635  0.05682711  0.76150646    -0.74100
O846        O  0.24700734  0.98907334  0.70372847    -0.74700
O847        O  0.30327627  0.98492893  0.77894373    -0.74100
O848        O  0.21645850  0.93418632  0.77219104    -0.74800
O849        O  0.29935361  0.00740732  0.74014217    -0.74200
O850        O  0.25382423  0.94183178  0.79590056    -0.74700
O851        O  0.25730714  0.99795002  0.82735055    -0.74600
O852        O  0.22466134  0.02865099  0.82241507    -0.74400
C853        C  0.15409982  0.99485743  0.78299855     0.77400
C854        C  0.22807007  0.97388296  0.69594853     0.77900
C855        C  0.22773373  0.06359893  0.74086356     0.76800
C856        C  0.31458932  0.99640520  0.75825617     0.77200
C857        C  0.23546184  0.92601027  0.78781993     0.78400
C858        C  0.24182366  0.01624333  0.83727837     0.77400
N859        N  0.24568935  0.03233440  0.49090547    -0.36300
N860        N  0.24686194  0.01798811  0.54817799    -0.56900
N861        N  0.24274095  0.96147809  0.53298751    -0.36300
N862        N  0.23842831  0.97630752  0.47570987    -0.56900
C863        C  0.24561860  0.05694693  0.50292932     0.27200
C864        C  0.23547783  0.03562601  0.46537304     0.27200
C865        C  0.23512457  0.95992523  0.55973748     0.27200
C866        C  0.23745539  0.93731359  0.52134926     0.27200
C867        C  0.25719585  0.04308381  0.55035538     0.35900
C868        C  0.24870296  0.00636656  0.57327336     0.35900
C869        C  0.24027866  0.98774703  0.45050253     0.35900
C870        C  0.24492905  0.94983514  0.47254936     0.35900
C871        C  0.23537520  0.07625813  0.48482166    -0.21600
C872        C  0.22871055  0.06270027  0.46113738    -0.21600
C873        C  0.22498035  0.93430796  0.56516851    -0.21600
C874        C  0.22680461  0.91987712  0.54094681    -0.21600
C875        C  0.26560777  0.04760047  0.57708389    -0.22700
C876        C  0.25979230  0.02438780  0.59178339    -0.22700
C877        C  0.24729518  0.96832423  0.43104799    -0.22700
C878        C  0.25064820  0.94429213  0.44514229    -0.22700
C879        C  0.25655629  0.06254285  0.52901502    -0.18000
C880        C  0.23523556  0.01543679  0.44488436    -0.18000
C881        C  0.24341839  0.93037487  0.49380334    -0.18000
C882        C  0.23924048  0.98018526  0.57975901    -0.18000
H883        H  0.23327794  0.09790041  0.48819619     0.14900
H884        H  0.22082670  0.07187763  0.44253520     0.14900
H885        H  0.21771768  0.92656759  0.58471350     0.14900
H886        H  0.22090116  0.89899706  0.53804383     0.14900
H887        H  0.27425267  0.06591926  0.58528770     0.13200
H888        H  0.26346019  0.02106473  0.61349939     0.13200
H889        H  0.25009259  0.97125182  0.40910223     0.13200
H890        H  0.25602227  0.92486660  0.43617707     0.13200
H891        H  0.25581533  0.01530377  0.49833559     0.26400
H892        H  0.25393621  0.97673485  0.52380286     0.26400
Zn893      Zn  0.25825350  0.98128413  0.29066271     1.49700
Zn894      Zn  0.26753112  0.00268243  0.23220292     1.49400
Zn895      Zn  0.21640155  0.96698811  0.24357177     1.49100
Zn896      Zn  0.21530078  0.02459168  0.26918814     1.49500
O897        O  0.23909700  0.99428209  0.25895856    -1.83900
O898        O  0.29783427  0.98658717  0.28861721    -0.74500
O899        O  0.25964916  0.98797703  0.19474354    -0.74300
O900        O  0.22291627  0.93210718  0.26313240    -0.73800
O901        O  0.30614481  0.99617494  0.24498381    -0.74500
O902        O  0.25154665  0.94236645  0.29653935    -0.74100
O903        O  0.22277246  0.96472666  0.20303719    -0.74700
O904        O  0.17627272  0.01952455  0.25747594    -0.74100
O905        O  0.26521025  0.04173921  0.22549888    -0.74800
O906        O  0.17707990  0.97642405  0.24456266    -0.74200
O907        O  0.22923526  0.05670026  0.24883650    -0.74700
O908        O  0.21609181  0.03150956  0.31062550    -0.74600
O909        O  0.24635161  0.00059242  0.32374155    -0.74400
C910        C  0.31437634  0.99203798  0.26947859     0.77400
C911        C  0.23936038  0.97520712  0.18615217     0.77900
C912        C  0.23716105  0.92547785  0.28384771     0.76800
C913        C  0.16439110  0.99865176  0.24835202     0.77200
C914        C  0.24891194  0.06047491  0.23241467     0.78400
C915        C  0.23000505  0.01973841  0.32920094     0.77400
N916        N  0.46720039  0.02776466  0.30223526    -0.36300
N917        N  0.52385366  0.02606704  0.29849811    -0.56900
N918        N  0.52310433  0.96378554  0.29904331    -0.36300
N919        N  0.46667765  0.96547243  0.29862835    -0.56900
C920        C  0.47177343  0.05498847  0.29958901     0.27200
C921        C  0.44161088  0.02306454  0.29441770     0.27200
C922        C  0.54847669  0.96875416  0.29035717     0.27200
C923        C  0.51833285  0.93674389  0.29532543     0.27200
C924        C  0.52136010  0.05322200  0.30365616     0.35900
C925        C  0.55043663  0.01993653  0.29794418     0.35900
C926        C  0.44021924  0.97167930  0.30029072     0.35900
C927        C  0.46924283  0.93819677  0.30296886     0.35900
C928        C  0.44840173  0.06777468  0.29100870    -0.21600
C929        C  0.42954946  0.04774659  0.28749127    -0.21600
C930        C  0.56010458  0.94442546  0.28156889    -0.21600
C931        C  0.54124220  0.92436231  0.28486187    -0.21600
C932        C  0.54656829  0.06433618  0.30636627    -0.22700
C933        C  0.56488021  0.04344562  0.30260763    -0.22700
C934        C  0.42590653  0.94815282  0.30569502    -0.22700
C935        C  0.44423215  0.92711838  0.30764298    -0.22700
C936        C  0.49674361  0.06845042  0.30355092    -0.18000
C937        C  0.42824038  0.99747966  0.29438241    -0.18000
C938        C  0.49368712  0.92301352  0.30059104    -0.18000
C939        C  0.56225006  0.99407931  0.29145947    -0.18000
H940        H  0.44544972  0.08921063  0.28686353     0.14900
H941        H  0.40916711  0.05107024  0.28059183     0.14900
H942        H  0.58024942  0.94133100  0.27362627     0.14900
H943        H  0.54394058  0.90316008  0.27959984     0.14900
H944        H  0.55131249  0.08541908  0.30996709     0.13200
H945        H  0.58647985  0.04544214  0.30296911     0.13200
H946        H  0.40436354  0.94625513  0.30770649     0.13200
H947        H  0.43956122  0.90600913  0.31138391     0.13200
H948        H  0.47996173  0.01324212  0.31074759     0.26400
H949        H  0.51087351  0.97779177  0.30918620     0.26400
Zn950      Zn  0.77769980  0.97298739  0.24593673     1.49700
Zn951      Zn  0.72365766  0.00395176  0.23215670     1.49400
Zn952      Zn  0.73430361  0.98575922  0.29196367     1.49100
Zn953      Zn  0.77334570  0.03001950  0.26659957     1.49500
O954        O  0.75193551  0.99845133  0.25941086    -1.83900
O955        O  0.77557280  0.97316179  0.20502770    -0.74500
O956        O  0.68650294  0.99044623  0.24475801    -0.74300
O957        O  0.74258567  0.94623205  0.29711810    -0.73800
O958        O  0.73701927  0.99297225  0.19392092    -0.74500
O959        O  0.77071018  0.93710604  0.26234332    -0.74100
O960        O  0.69421592  0.99008208  0.28955839    -0.74700
O961        O  0.77677904  0.03575342  0.30777614    -0.74100
O962        O  0.71739512  0.04345683  0.22980247    -0.74800
O963        O  0.74691284  0.00641509  0.32435219    -0.74200
O964        O  0.75227239  0.06128253  0.25191374    -0.74700
O965        O  0.81115686  0.02726033  0.24957321    -0.74600
O966        O  0.81604136  0.98271430  0.25311164    -0.74400
C967        C  0.75952811  0.98227345  0.18691377     0.77400
C968        C  0.67778427  0.98975247  0.26963956     0.77900
C969        C  0.75702850  0.92969567  0.28320588     0.76800
C970        C  0.76393915  0.02511531  0.32780044     0.77200
C971        C  0.73029561  0.06356517  0.23879454     0.78400
C972        C  0.82599887  0.00595854  0.24862822     0.77400
N973        N  0.76816186  0.04914297  0.49027869    -0.36300
N974        N  0.76052701  0.99278341  0.47568146    -0.56900
N975        N  0.76418037  0.97797085  0.53274614    -0.36300
N976        N  0.77494656  0.03409172  0.54695649    -0.56900
C977        C  0.77317334  0.05067775  0.46292603     0.27200
C978        C  0.77438658  0.07333834  0.50131290     0.27200
C979        C  0.76300561  0.95337759  0.52065371     0.27200
C980        C  0.77648746  0.97451741  0.55727093     0.27200
C981        C  0.75735215  0.00453647  0.45077749     0.35900
C982        C  0.74923542  0.96806309  0.47413077     0.35900
C983        C  0.76968358  0.06079911  0.55053068     0.35900
C984        C  0.77381236  0.02256829  0.57215785     0.35900
C985        C  0.78261929  0.07631624  0.45642324    -0.21600
C986        C  0.78294518  0.09081441  0.48065398    -0.21600
C987        C  0.77436544  0.93387287  0.53775794    -0.21600
C988        C  0.78319007  0.94729558  0.56079411    -0.21600
C989        C  0.74443039  0.98697689  0.43309076    -0.22700
C990        C  0.73884636  0.96401702  0.44806775    -0.22700
C991        C  0.76553324  0.06641921  0.57819291    -0.22700
C992        C  0.76826884  0.04212836  0.59197323    -0.22700
C993        C  0.76680930  0.03052641  0.44350893    -0.18000
C994        C  0.77061511  0.08029903  0.52926500    -0.18000
C995        C  0.77930060  0.99487377  0.57749990    -0.18000
C996        C  0.75091538  0.94818592  0.49502556    -0.18000
H997        H  0.78771330  0.08410415  0.43619038     0.14900
H998        H  0.78867036  0.11183496  0.48274935     0.14900
H999        H  0.77614430  0.91227154  0.53398402     0.14900
H1000       H  0.79281972  0.93796059  0.57841973     0.14900
H1001       H  0.73932579  0.99041624  0.41171291     0.13200
H1002       H  0.72897265  0.94613537  0.44038054     0.13200
H1003       H  0.76149277  0.08600496  0.58748945     0.13200
H1004       H  0.76647146  0.03919225  0.61402159     0.13200
H1005       H  0.75775129  0.03393152  0.50043672     0.26400
H1006       H  0.75408393  0.99533102  0.52604806     0.26400
Zn1007     Zn  0.79873459  0.98694383  0.79576920     1.49700
Zn1008     Zn  0.80930267  0.01720585  0.74305651     1.49400
Zn1009     Zn  0.75446972  0.98024244  0.74569705     1.49100
Zn1010     Zn  0.75114112  0.03145420  0.77758470     1.49500
O1011       O  0.77855255  0.00435280  0.76575801    -1.83900
O1012       O  0.84073135  0.99207210  0.79852782    -0.74500
O1013       O  0.80756071  0.99852395  0.70579836    -0.74300
O1014       O  0.75759728  0.94490182  0.76414550    -0.73800
O1015       O  0.84897031  0.01435039  0.76008734    -0.74500
O1016       O  0.78885783  0.94765544  0.79682984    -0.74100
O1017       O  0.76853069  0.97720382  0.70751655    -0.74700
O1018       O  0.70990513  0.02367374  0.77005497    -0.74100
O1019       O  0.80014850  0.05609348  0.73434083    -0.74800
O1020       O  0.71314052  0.98827038  0.74297697    -0.74200
O1021       O  0.76096810  0.06479728  0.75580194    -0.74700
O1022       O  0.75493388  0.03639329  0.81903444    -0.74600
O1023       O  0.78414248  0.00305596  0.82934342    -0.74400
C1024       C  0.85764205  0.00380653  0.78264639     0.77400
C1025       C  0.78912324  0.98489568  0.69417123     0.77900
C1026       C  0.77150264  0.93440847  0.78336488     0.76800
C1027       C  0.69838585  0.00592610  0.75512573     0.77200
C1028       C  0.78022513  0.07172398  0.73978452     0.78400
C1029       C  0.76824042  0.02213768  0.83634606     0.77400
Zn1030     Zn  0.71305967  0.73798896  0.46737152     1.49700
Zn1031     Zn  0.75565524  0.73721087  0.51441205     1.49400
Zn1032     Zn  0.75847603  0.78187235  0.47329098     1.49100
Zn1033     Zn  0.70797690  0.78450712  0.51009561     1.49500
O1034       O  0.73276934  0.76025754  0.49189860    -1.83900
O1035       O  0.71342537  0.70047545  0.48146842    -0.74500
O1036       O  0.79561541  0.73970051  0.50309571    -0.74300
O1037       O  0.76640013  0.76397081  0.43853815    -0.73800
O1038       O  0.74323162  0.69763425  0.51489330    -0.74500
O1039       O  0.73313862  0.73524679  0.43158651    -0.74100
O1040       O  0.79438934  0.78282833  0.49094259    -0.74700
O1041       O  0.71248520  0.82355820  0.49732263    -0.74100
O1042       O  0.75177524  0.75323153  0.55162395    -0.74800
O1043       O  0.74704151  0.82003383  0.46873401    -0.74200
O1044       O  0.71871102  0.78421245  0.54943454    -0.74700
O1045       O  0.66961063  0.77140276  0.50549851    -0.74600
O1046       O  0.67314376  0.74660344  0.46727074    -0.74400
C1047       C  0.72559333  0.68668553  0.49972348     0.77400
C1048       C  0.80779268  0.76153883  0.49660724     0.77900
C1049       C  0.75558366  0.74551608  0.42452952     0.76800
C1050       C  0.72968986  0.83447455  0.48126252     0.77200
C1051       C  0.73706281  0.77159419  0.56261758     0.78400
C1052       C  0.65904727  0.75689122  0.48679536     0.77400
Zn1053     Zn  0.72715374  0.23990211  0.50284744     1.49700
Zn1054     Zn  0.73238185  0.29527651  0.53204536     1.49400
Zn1055     Zn  0.77803422  0.25050413  0.53963095     1.49100
Zn1056     Zn  0.77374821  0.28312722  0.48447065     1.49500
O1057       O  0.75284818  0.26697617  0.51445104    -1.83900
O1058       O  0.68829875  0.24933573  0.51244594    -0.74500
O1059       O  0.74837244  0.30486208  0.56773065    -0.74300
O1060       O  0.77045240  0.21117457  0.54716065    -0.73800
O1061       O  0.69357521  0.28634306  0.53720712    -0.74500
O1062       O  0.73627360  0.20378432  0.51931014    -0.74100
O1063       O  0.77876816  0.27217081  0.57375217    -0.74700
O1064       O  0.81375961  0.27652799  0.48749916    -0.74100
O1065       O  0.73325807  0.32868033  0.51014151    -0.74800
O1066       O  0.81511178  0.25016822  0.52440679    -0.74200
O1067       O  0.76591358  0.32334677  0.47912886    -0.74700
O1068       O  0.76390687  0.26313944  0.45097694    -0.74600
O1069       O  0.73158191  0.23421012  0.46262145    -0.74400
C1070       C  0.67840384  0.26834832  0.52727077     0.77400
C1071       C  0.76650959  0.29347991  0.58200299     0.77900
C1072       C  0.75385667  0.19514015  0.53611543     0.76800
C1073       C  0.82668843  0.26113346  0.50394167     0.77200
C1074       C  0.74793196  0.33783151  0.49091299     0.78400
C1075       C  0.74794194  0.24409146  0.44515105     0.77400
Zn1076     Zn  0.22196824  0.76967401  0.51003323     1.49700
Zn1077     Zn  0.22829912  0.71435154  0.48312393     1.49400
Zn1078     Zn  0.27743353  0.75894448  0.48085345     1.49100
Zn1079     Zn  0.26449097  0.72505966  0.53420329     1.49500
O1080       O  0.24850044  0.74190733  0.50212472    -1.83900
O1081       O  0.18544141  0.76285605  0.49568427    -0.74500
O1082       O  0.24220166  0.71472014  0.44589706    -0.74300
O1083       O  0.27353531  0.80009005  0.47898825    -0.73800
O1084       O  0.18786285  0.72092592  0.47998458    -0.74500
O1085       O  0.23237959  0.80540796  0.49586164    -0.74100
O1086       O  0.27551642  0.74420967  0.44294521    -0.74700
O1087       O  0.30474862  0.73016503  0.53542107    -0.74100
O1088       O  0.23679948  0.67695245  0.49607360    -0.74800
O1089       O  0.31426058  0.75037979  0.49582407    -0.74200
O1090       O  0.26096291  0.68379058  0.53350954    -0.74700
O1091       O  0.24821181  0.74360165  0.56694636    -0.74600
O1092       O  0.21937654  0.77444653  0.54984960    -0.74400
C1093       C  0.17441776  0.74260249  0.48464391     0.77400
C1094       C  0.26027933  0.72671755  0.43214961     0.77900
C1095       C  0.25352678  0.81515292  0.48536068     0.76800
C1096       C  0.32183889  0.73934571  0.51822360     0.77200
C1097       C  0.25100290  0.66783644  0.51572589     0.78400
C1098       C  0.23140593  0.76315719  0.56978962     0.77400
Zn1099     Zn  0.28907338  0.22286279  0.48752523     1.49700
Zn1100     Zn  0.27591306  0.27158727  0.52462886     1.49400
Zn1101     Zn  0.24255580  0.26676412  0.47070410     1.49100
Zn1102     Zn  0.23283989  0.22626015  0.51498482     1.49500
O1103       O  0.26082530  0.24713263  0.49936731    -1.83900
O1104       O  0.32566002  0.23911846  0.49458014    -0.74500
O1105       O  0.27658301  0.30805937  0.50747978    -0.74300
O1106       O  0.25014064  0.24525823  0.43742333    -0.73800
O1107       O  0.31515877  0.26338776  0.53153355    -0.74500
O1108       O  0.28235619  0.21499390  0.44777452    -0.74100
O1109       O  0.25625056  0.30521302  0.46700894    -0.74700
O1110       O  0.20059070  0.22421232  0.49137857    -0.74100
O1111       O  0.25307391  0.27283690  0.55853981    -0.74800
O1112       O  0.20184998  0.26597623  0.47472414    -0.74200
O1113       O  0.22070349  0.24372311  0.54918087    -0.74700
O1114       O  0.24533183  0.18914109  0.52420636    -0.74600
O1115       O  0.28684615  0.18700716  0.50788696    -0.74400
C1116       C  0.33275077  0.25353309  0.51505930     0.77400
C1117       C  0.26957507  0.31854171  0.48462498     0.77900
C1118       C  0.26532700  0.22523087  0.43112879     0.76800
C1119       C  0.18893727  0.24434930  0.48009266     0.77200
C1120       C  0.23114128  0.26113927  0.56484513     0.78400
C1121       C  0.26726306  0.17625551  0.52079544     0.77400
Zn1122     Zn  0.22919917  0.25328160  0.27647510     1.49700
Zn1123     Zn  0.27780697  0.21282039  0.26371660     1.49400
Zn1124     Zn  0.23574545  0.22509385  0.21927471     1.49100
Zn1125     Zn  0.27616702  0.27007472  0.23446697     1.49500
O1126       O  0.25470230  0.24065778  0.24883638    -1.83900
O1127       O  0.23538722  0.23350099  0.31167991    -0.74500
O1128       O  0.27829646  0.17926088  0.24171009    -0.74300
O1129       O  0.19719912  0.22665823  0.22473819    -0.73800
O1130       O  0.26684250  0.20275619  0.30145238    -0.74500
O1131       O  0.19110194  0.24806401  0.26444313    -0.74100
O1132       O  0.24565401  0.18724970  0.21208049    -0.74700
O1133       O  0.27457093  0.27432691  0.19323302    -0.74100
O1134       O  0.31445998  0.22628646  0.26810257    -0.74800
O1135       O  0.24235645  0.24458323  0.18566201    -0.74200
O1136       O  0.31367819  0.26617588  0.24672036    -0.74700
O1137       O  0.26331294  0.30430635  0.25090196    -0.74600
O1138       O  0.23348396  0.29301362  0.28330775    -0.74400
C1139       C  0.25078795  0.21387601  0.31847870     0.77400
C1140       C  0.26314098  0.17153586  0.22248388     0.77900
C1141       C  0.18194225  0.23692279  0.24292659     0.76800
C1142       C  0.25815998  0.26275180  0.17732864     0.77200
C1143       C  0.32566258  0.24825007  0.26103363     0.78400
C1144       C  0.24725791  0.31051347  0.27033721     0.77400
Zn1145     Zn  0.76711364  0.21608502  0.23428431     1.49700
Zn1146     Zn  0.77742388  0.25224120  0.28458241     1.49400
Zn1147     Zn  0.73636848  0.27202287  0.23964523     1.49100
Zn1148     Zn  0.72179166  0.22325565  0.27739496     1.49500
O1149       O  0.75055764  0.24108108  0.25911584    -1.83900
O1150       O  0.80524489  0.20813647  0.24256965    -0.74500
O1151       O  0.77680141  0.29223561  0.29038109    -0.74300
O1152       O  0.74867976  0.27273051  0.20123068    -0.73800
O1153       O  0.81365667  0.24354581  0.26923823    -0.74500
O1154       O  0.76875424  0.23251715  0.19761299    -0.74100
O1155       O  0.74971340  0.30512986  0.25642176    -0.74700
O1156       O  0.68963795  0.24616398  0.27620111    -0.74100
O1157       O  0.77036338  0.23543419  0.32100706    -0.74800
O1158       O  0.69640309  0.27492250  0.24147090    -0.74200
O1159       O  0.73015802  0.21699605  0.31652451    -0.74700
O1160       O  0.71244580  0.18825976  0.26000544    -0.74600
O1161       O  0.74662820  0.18240912  0.23118472    -0.74400
C1162       C  0.82146939  0.22473443  0.25312960     0.77400
C1163       C  0.76507337  0.31048152  0.27630558     0.77900
C1164       C  0.76131696  0.25502392  0.18727323     0.76800
C1165       C  0.68144983  0.26455744  0.25987932     0.77200
C1166       C  0.74998527  0.22354776  0.33120853     0.78400
C1167       C  0.72493501  0.17428091  0.24201766     0.77400
Zn1168     Zn  0.72068731  0.77505431  0.24495409     1.49700
Zn1169     Zn  0.75500537  0.72737435  0.22195102     1.49400
Zn1170     Zn  0.77738402  0.76206491  0.27004426     1.49100
Zn1171     Zn  0.72938813  0.72413505  0.28035498     1.49500
O1172       O  0.74577375  0.74720853  0.25453507    -1.83900
O1173       O  0.72482107  0.78186833  0.20456636    -0.74500
O1174       O  0.79231701  0.73497051  0.20924944    -0.74300
O1175       O  0.77023597  0.80002974  0.28235217    -0.73800
O1176       O  0.73140063  0.73901926  0.19192537    -0.74500
O1177       O  0.73005636  0.80872680  0.26469117    -0.74100
O1178       O  0.80618214  0.76281911  0.24207894    -0.74700
O1179       O  0.75094105  0.72156021  0.31370292    -0.74100
O1180       O  0.75137834  0.68806961  0.22692764    -0.74800
O1181       O  0.78978104  0.74051240  0.30249445    -0.74200
O1182       O  0.72847232  0.68727549  0.26639547    -0.74700
O1183       O  0.69170326  0.73380243  0.28799440    -0.74600
O1184       O  0.68298153  0.76423349  0.25520944    -0.74400
C1185       C  0.72815277  0.76393611  0.18603497     0.77400
C1186       C  0.80979367  0.75051849  0.21938613     0.77900
C1187       C  0.75036717  0.81598090  0.27839820     0.76800
C1188       C  0.77520615  0.72699567  0.31905343     0.77200
C1189       C  0.73888095  0.67553234  0.24575805     0.78400
C1190       C  0.67523042  0.74803559  0.27411837     0.77400
Zn1191     Zn  0.22212713  0.73230803  0.21973278     1.49700
Zn1192     Zn  0.26350398  0.72352616  0.26191250     1.49400
Zn1193     Zn  0.26432562  0.77728043  0.23817687     1.49100
Zn1194     Zn  0.21623532  0.75777242  0.27731251     1.49500
O1195       O  0.24037507  0.74938517  0.24823310    -1.83900
O1196       O  0.22372344  0.69168883  0.22169685    -0.74500
O1197       O  0.29865934  0.72269826  0.24439862    -0.74300
O1198       O  0.25927948  0.78430670  0.19812508    -0.73800
O1199       O  0.24830312  0.68837753  0.25939450    -0.74500
O1200       O  0.23552276  0.74792968  0.18570569    -0.74100
O1201       O  0.30273773  0.76711536  0.24630110    -0.74700
O1202       O  0.22320739  0.79525445  0.28970251    -0.74100
O1203       O  0.26806902  0.72962338  0.30064029    -0.74800
O1204       O  0.25513203  0.80932300  0.26068094    -0.74200
O1205       O  0.22442649  0.73371877  0.30920817    -0.74700
O1206       O  0.17792670  0.75723542  0.26429513    -0.74600
O1207       O  0.18415739  0.74279054  0.22159684    -0.74400
C1208       C  0.23375509  0.67781675  0.24126950     0.77400
C1209       C  0.31316823  0.74345270  0.24651706     0.77900
C1210       C  0.24777153  0.76980883  0.18011135     0.76800
C1211       C  0.23886584  0.81341920  0.28060205     0.77200
C1212       C  0.24826764  0.72846941  0.31705078     0.78400
C1213       C  0.16888800  0.75210474  0.24041616     0.77400
Zn1214     Zn  0.23841670  0.73010652  0.72276869     1.49700
Zn1215     Zn  0.23566257  0.75433107  0.78036554     1.49400
Zn1216     Zn  0.28888226  0.73709527  0.75939082     1.49100
Zn1217     Zn  0.26168024  0.78775989  0.73193497     1.49500
O1218       O  0.25585260  0.75297690  0.74736782    -1.83900
O1219       O  0.20121004  0.72305088  0.73479276    -0.74500
O1220       O  0.25322696  0.72732766  0.80406478    -0.74300
O1221       O  0.28918594  0.69749040  0.75196393    -0.73800
O1222       O  0.19837909  0.74446036  0.77473187    -0.74500
O1223       O  0.25744004  0.69505375  0.72000725    -0.74100
O1224       O  0.29290389  0.74514518  0.79945764    -0.74700
O1225       O  0.30019699  0.79233564  0.72118164    -0.74100
O1226       O  0.23586044  0.79212263  0.79611336    -0.74800
O1227       O  0.31773014  0.75422959  0.73875997    -0.74200
O1228       O  0.25169215  0.81488544  0.75968214    -0.74700
O1229       O  0.24025506  0.79265566  0.69791941    -0.74600
O1230       O  0.23449070  0.74904710  0.68737362    -0.74400
C1231       C  0.18764366  0.73157211  0.75528910     0.77400
C1232       C  0.27310633  0.73893738  0.81463994     0.77900
C1233       C  0.27581535  0.68414399  0.73448688     0.76800
C1234       C  0.31978369  0.77607341  0.72497637     0.77200
C1235       C  0.24225852  0.81413637  0.78406047     0.78400
C1236       C  0.23313387  0.77418560  0.68137240     0.77400
Zn1237     Zn  0.26691562  0.26491702  0.71564133     1.49700
Zn1238     Zn  0.21428391  0.23502688  0.72931487     1.49400
Zn1239     Zn  0.26892214  0.21489698  0.75330623     1.49100
Zn1240     Zn  0.24341983  0.26890898  0.77620895     1.49500
O1241       O  0.24806717  0.24609198  0.74391342    -1.83900
O1242       O  0.24686485  0.26645325  0.68114203    -0.74500
O1243       O  0.21256094  0.19484762  0.72380521    -0.74300
O1244       O  0.30646041  0.21900621  0.74085819    -0.73800
O1245       O  0.20613082  0.25297330  0.69353332    -0.74500
O1246       O  0.30455783  0.25249755  0.71060501    -0.74100
O1247       O  0.25324272  0.18193240  0.73748849    -0.74700
O1248       O  0.26246630  0.25260082  0.80820502    -0.74100
O1249       O  0.18599672  0.24608758  0.75479982    -0.74800
O1250       O  0.27074375  0.21042628  0.79387008    -0.74200
O1251       O  0.20454186  0.27191185  0.78696844    -0.74700
O1252       O  0.25558787  0.30671371  0.76912612    -0.74600
O1253       O  0.26932195  0.30276607  0.72578280    -0.74400
C1254       C  0.22210524  0.26348630  0.67616826     0.77400
C1255       C  0.23036034  0.17657897  0.72761392     0.77900
C1256       C  0.31798344  0.23507457  0.72414491     0.76800
C1257       C  0.26950295  0.22809445  0.81283499     0.77200
C1258       C  0.18430183  0.26101950  0.77597244     0.78400
C1259       C  0.26446595  0.31702559  0.74689905     0.77400
Zn1260     Zn  0.77689501  0.27887276  0.75232654     1.49700
Zn1261     Zn  0.74074742  0.23702519  0.71737820     1.49400
Zn1262     Zn  0.76939042  0.21922631  0.77239070     1.49100
Zn1263     Zn  0.72298149  0.26067628  0.77380719     1.49500
O1264       O  0.75293580  0.24832644  0.75326261    -1.83900
O1265       O  0.78143213  0.29139216  0.71386923    -0.74500
O1266       O  0.75430258  0.19915784  0.70791732    -0.74300
O1267       O  0.80789104  0.22637589  0.77937223    -0.73800
O1268       O  0.75426943  0.26407537  0.69056513    -0.74500
O1269       O  0.81298665  0.26907771  0.76565414    -0.74100
O1270       O  0.76975027  0.18702850  0.74914888    -0.74700
O1271       O  0.72414975  0.24771911  0.81234714    -0.74100
O1272       O  0.70032267  0.23648541  0.71551006    -0.74800
O1273       O  0.75047121  0.21147836  0.80745928    -0.74200
O1274       O  0.69022498  0.24605191  0.75905480    -0.74700
O1275       O  0.71928010  0.30057619  0.76850108    -0.74600
O1276       O  0.76215151  0.31152801  0.77130026    -0.74400
C1277       C  0.77022478  0.28404211  0.69181199     0.77400
C1278       C  0.76465792  0.18168717  0.72419910     0.77900
C1279       C  0.82251619  0.24691189  0.77493146     0.76800
C1280       C  0.73414356  0.22564914  0.82169512     0.77200
C1281       C  0.68336083  0.23928583  0.73502206     0.78400
C1282       C  0.73764906  0.31817111  0.76851143     0.77400
Zn1283     Zn  0.72704438  0.78235837  0.73562416     1.49700
Zn1284     Zn  0.72756727  0.72711823  0.76793651     1.49400
Zn1285     Zn  0.76757286  0.73413571  0.71879563     1.49100
Zn1286     Zn  0.77499360  0.76618098  0.77245791     1.49500
O1287       O  0.74916701  0.75251229  0.74819600    -1.83900
O1288       O  0.68846920  0.77335177  0.73882868    -0.74500
O1289       O  0.73504493  0.68990956  0.75620344    -0.74300
O1290       O  0.76027325  0.75392254  0.68432118    -0.73800
O1291       O  0.68975774  0.73341676  0.76002264    -0.74500
O1292       O  0.73390665  0.78899213  0.69582797    -0.74100
O1293       O  0.75466099  0.69619969  0.71545499    -0.74700
O1294       O  0.81128616  0.75583998  0.76278801    -0.74100
O1295       O  0.73130546  0.72991726  0.80802597    -0.74800
O1296       O  0.80741975  0.73183895  0.72454701    -0.74200
O1297       O  0.76897884  0.75332877  0.80929541    -0.74700
O1298       O  0.77250452  0.80548646  0.77652455    -0.74600
O1299       O  0.73407000  0.81633410  0.75649426    -0.74400
C1300       C  0.67684270  0.75260602  0.74859085     0.77400
C1301       C  0.74356388  0.68095062  0.73325355     0.77900
C1302       C  0.74681077  0.77511325  0.67802511     0.76800
C1303       C  0.82156900  0.74177664  0.74362103     0.77200
C1304       C  0.74991809  0.74120656  0.82117358     0.78400
C1305       C  0.75417923  0.82262334  0.77098219     0.77400
C1306       C  0.52928303  0.50061708  0.68423755     0.30300
C1307       C  0.47353169  0.49293570  0.68551055     0.30300
C1308       C  0.51171409  0.52470513  0.69361264    -0.05900
C1309       C  0.51570447  0.49475881  0.65547040    -0.06700
C1310       C  0.51847363  0.47710299  0.70161069    -0.06600
C1311       C  0.48402906  0.52062603  0.69423423    -0.05900
C1312       C  0.48726596  0.49082887  0.65615675    -0.06700
C1313       C  0.49099108  0.47295591  0.70187039    -0.06600
C1314       C  0.47203657  0.54431457  0.70261230    -0.32000
N1315       N  0.49146320  0.56256107  0.70720849     0.14500
C1316       C  0.51578061  0.55107150  0.70176901    -0.32000
H1317       H  0.53486244  0.56111931  0.70384763     0.16500
C1318       C  0.47887372  0.49129894  0.62875674    -0.31000
N1319       N  0.50023438  0.49544693  0.61162214     0.13300
C1320       C  0.52243505  0.49837254  0.62767060    -0.30900
C1321       C  0.48656093  0.44970583  0.71688032    -0.31200
N1322       N  0.51050359  0.43988974  0.72604772     0.13800
H1323       H  0.46736556  0.44005943  0.72004668     0.16400
C1324       C  0.53001554  0.45690473  0.71728788    -0.31200
H1325       H  0.55110854  0.45488291  0.72176700     0.16400
H1326       H  0.54183365  0.50406687  0.61959330     0.16400
H1327       H  0.45077828  0.54794154  0.70574868     0.16500
H1328       H  0.45851392  0.49059006  0.62147536     0.16400
Zn1329     Zn  0.52163167  0.47340810  0.48009825     1.49700
Zn1330     Zn  0.52380345  0.52040898  0.52690451     1.49400
Zn1331     Zn  0.47578172  0.52396328  0.47919433     1.49100
Zn1332     Zn  0.47203249  0.47740283  0.52694765     1.49500
O1333       O  0.49824772  0.49873640  0.50323059    -1.83900
O1334       O  0.56376754  0.48312009  0.48206365    -0.74500
O1335       O  0.51400993  0.56222208  0.52404467    -0.74300
O1336       O  0.48648363  0.51711168  0.43810359    -0.73800
O1337       O  0.56521346  0.51415415  0.51511949    -0.74500
O1338       O  0.51084200  0.47872794  0.43878213    -0.74100
O1339       O  0.48347214  0.56488891  0.49068619    -0.74700
O1340       O  0.43035702  0.48543749  0.51499360    -0.74100
O1341       O  0.51812616  0.50911552  0.56823194    -0.74800
O1342       O  0.43342803  0.51602637  0.48135702    -0.74200
O1343       O  0.47939312  0.48668382  0.56861536    -0.74700
O1344       O  0.48173312  0.43539410  0.52435004    -0.74600
O1345       O  0.51480355  0.43245138  0.49318945    -0.74400
C1346       C  0.57752465  0.49936967  0.49701998     0.77400
C1347       C  0.49831109  0.57653131  0.50873707     0.77900
C1348       C  0.49859614  0.49765460  0.42538697     0.76800
C1349       C  0.41879767  0.50056324  0.49655450     0.77200
C1350       C  0.49915764  0.49728345  0.58154385     0.78400
C1351       C  0.49890729  0.42098504  0.51071712     0.77400
C1352       C  0.49525276  0.46630266  0.32392057     0.30300
C1353       C  0.49372947  0.52346218  0.32180439     0.30300
C1354       C  0.47019195  0.47966854  0.31104553    -0.05900
C1355       C  0.49737311  0.48151004  0.35185970    -0.06700
C1356       C  0.51672195  0.48026555  0.30620900    -0.06600
C1357       C  0.46894161  0.50829267  0.31025283    -0.05900
C1358       C  0.49640040  0.51012114  0.35089048    -0.06700
C1359       C  0.51621233  0.50876548  0.30518148    -0.06600
C1360       C  0.44682291  0.51482793  0.29419145    -0.32000
N1361       N  0.43493338  0.49166446  0.28608636     0.14500
C1362       C  0.45031222  0.47049989  0.29403887    -0.32000
H1363       H  0.44744483  0.45011819  0.28664037     0.16500
C1364       C  0.49661572  0.51891568  0.37809895    -0.31000
N1365       N  0.49831067  0.49697464  0.39537440     0.13300
C1366       C  0.49884746  0.47416092  0.37947076    -0.30900
C1367       C  0.53725618  0.51627613  0.28825259    -0.31200
N1368       N  0.55047817  0.49356671  0.27972086     0.13800
H1369       H  0.54367055  0.53668567  0.28369359     0.16400
C1370       C  0.53745055  0.47159801  0.28957814    -0.31200
H1371       H  0.54404723  0.45087245  0.28636939     0.16400
H1372       H  0.49948764  0.45359476  0.38741253     0.16400
H1373       H  0.43979485  0.53462685  0.28778490     0.16500
H1374       H  0.49547560  0.53983885  0.38480257     0.16400
C1375       C  0.67890755  0.50834664  0.46245131     0.30300
C1376       C  0.67971371  0.50441329  0.52026072     0.30300
C1377       C  0.68705604  0.53385603  0.47856974    -0.05900
C1378       C  0.65045515  0.50251823  0.47715784    -0.06700
C1379       C  0.69614304  0.48607642  0.47543619    -0.06600
C1380       C  0.68766126  0.53176561  0.50726239    -0.05900
C1381       C  0.65119787  0.50126039  0.50662670    -0.06700
C1382       C  0.69674977  0.48408302  0.50388277    -0.06600
C1383       C  0.69364087  0.55711144  0.51731859    -0.32000
N1384       N  0.69739239  0.57415726  0.49577980     0.14500
C1385       C  0.69324964  0.56036346  0.47201726    -0.32000
H1386       H  0.69461219  0.56898369  0.45151911     0.16500
C1387       C  0.62457798  0.50111625  0.51597906    -0.31000
N1388       N  0.60721122  0.50039268  0.49433033     0.13300
C1389       C  0.62278430  0.50143811  0.47067523    -0.30900
C1390       C  0.70998498  0.46012081  0.51011559    -0.31200
N1391       N  0.71754774  0.44808586  0.48616478     0.13800
H1392       H  0.71195954  0.45100174  0.53034192     0.16400
C1393       C  0.70922847  0.46370808  0.46492740    -0.31200
H1394       H  0.71077357  0.45808081  0.44342174     0.16400
H1395       H  0.61458358  0.50268210  0.45013165     0.16400
H1396       H  0.69460166  0.56303061  0.53874660     0.16500
H1397       H  0.61825977  0.50190533  0.53732598     0.16400
C1398       C  0.49916650  0.67740996  0.54435443     0.30300
C1399       C  0.49127619  0.67936984  0.48697157     0.30300
C1400       C  0.51998666  0.69390285  0.52675130    -0.05900
C1401       C  0.49899004  0.64927128  0.52872727    -0.06700
C1402       C  0.47260679  0.69064036  0.53404083    -0.06600
C1403       C  0.51554886  0.69468383  0.49822456    -0.05900
C1404       C  0.49465565  0.65063908  0.50004161    -0.06700
C1405       C  0.46866784  0.69192106  0.50537553    -0.06600
C1406       C  0.53507212  0.71065136  0.48630721    -0.32000
N1407       N  0.55188336  0.71901419  0.50607385     0.14500
C1408       C  0.54267845  0.70988247  0.53070893    -0.32000
H1409       H  0.55257180  0.71500424  0.54956245     0.16500
C1410       C  0.49350102  0.62414841  0.49031481    -0.31000
N1411       N  0.49766678  0.60626339  0.51142052     0.13300
C1412       C  0.50117994  0.62140917  0.53486595    -0.30900
C1413       C  0.44469225  0.70601594  0.50166753    -0.31200
N1414       N  0.43332830  0.71146845  0.52644750     0.13800
H1415       H  0.43557815  0.71255266  0.48270064     0.16400
C1416       C  0.45042028  0.70297720  0.54637694    -0.31200
H1417       H  0.44680193  0.70569309  0.56816615     0.16400
H1418       H  0.50449790  0.61285543  0.55514436     0.16400
H1419       H  0.53761236  0.71530993  0.46468463     0.16500
H1420       H  0.49008716  0.61836590  0.46913953     0.16400
C1421       C  0.31647593  0.49294958  0.51851312     0.30300
C1422       C  0.31695875  0.50003298  0.46105400     0.30300
C1423       C  0.29958079  0.51607065  0.50677040    -0.05900
C1424       C  0.34486629  0.49906180  0.50549280    -0.06700
C1425       C  0.30894968  0.46853864  0.50100363    -0.06600
C1426       C  0.30015798  0.52021642  0.47849667    -0.05900
C1427       C  0.34577262  0.50268482  0.47613501    -0.06700
C1428       C  0.30918606  0.47207427  0.47256705    -0.06600
C1429       C  0.28920689  0.54587573  0.47403587    -0.32000
N1430       N  0.28158445  0.55659241  0.49871354     0.14500
C1431       C  0.28827346  0.53874908  0.51874204    -0.32000
H1432       H  0.28693270  0.54293978  0.54060159     0.16500
C1433       C  0.37369878  0.50403890  0.47001829    -0.31000
N1434       N  0.38903435  0.50079480  0.49358950     0.13300
C1435       C  0.37128768  0.49725705  0.51483466    -0.30900
C1436       C  0.30456095  0.44706902  0.46096694    -0.31200
N1437       N  0.30168017  0.42873633  0.48156406     0.13800
H1438       H  0.30386614  0.44239803  0.43920522     0.16400
C1439       C  0.30457257  0.44148521  0.50604330    -0.31200
H1440       H  0.30355627  0.43174263  0.52604058     0.16400
H1441       H  0.37722078  0.49285747  0.53579241     0.16400
H1442       H  0.28857615  0.55665583  0.45457410     0.16500
H1443       H  0.38215333  0.50596046  0.44952234     0.16400
C1444       C  0.50122949  0.32206900  0.55233763     0.30300
C1445       C  0.50512140  0.31692041  0.49472955     0.30300
C1446       C  0.47925326  0.30525005  0.53778552    -0.05900
C1447       C  0.50087732  0.34932263  0.53499944    -0.06700
C1448       C  0.52644012  0.30721700  0.54077177    -0.06600
C1449       C  0.48116240  0.30294217  0.50908738    -0.05900
C1450       C  0.50320089  0.34641795  0.50615223    -0.06700
C1451       C  0.52870844  0.30472363  0.51199709    -0.06600
C1452       C  0.45989380  0.28721297  0.50066746    -0.32000
N1453       N  0.44506950  0.28007103  0.52300094     0.14500
C1454       C  0.45733686  0.28986394  0.54562937    -0.32000
H1455       H  0.45004028  0.28580739  0.56617187     0.16500
C1456       C  0.50322572  0.37241328  0.49471123    -0.31000
N1457       N  0.50024902  0.39137867  0.51499021     0.13300
C1458       C  0.49864519  0.37743795  0.53956749    -0.30900
C1459       C  0.55207450  0.28964901  0.50731059    -0.31200
N1460       N  0.56399950  0.28370357  0.53161989     0.13800
H1461       H  0.56049726  0.28307759  0.48796234     0.16400
C1462       C  0.54801203  0.29331426  0.55207495    -0.31200
H1463       H  0.55213632  0.29010521  0.57362406     0.16400
H1464       H  0.49636496  0.38699806  0.55950267     0.16400
H1465       H  0.45493207  0.28193302  0.47976329     0.16500
H1466       H  0.50481585  0.37709592  0.47295720     0.16400
C1467       C  0.39843761  0.28605334  0.53792589    -0.20000
C1468       C  0.41754103  0.27119700  0.52264045    -0.06600
C1469       C  0.40882390  0.24943968  0.50619359     0.14300
C1470       C  0.38120396  0.24411375  0.50437542    -0.20100
C1471       C  0.36187741  0.25937025  0.51924874    -0.06600
C1472       C  0.37092692  0.28051573  0.53666697     0.14300
C1473       C  0.35206648  0.29816806  0.55347409    -0.23400
H1474       H  0.40512437  0.30286542  0.55037868     0.15500
H1475       H  0.37481067  0.22762605  0.49130846     0.15600
C1476       C  0.42805496  0.23093705  0.49101674    -0.23400
H1477       H  0.36290730  0.31393244  0.56519008     0.05800
H1478       H  0.34111645  0.28556552  0.56876583     0.09000
H1479       H  0.33768724  0.30886913  0.53971751     0.09000
H1480       H  0.44932168  0.23498317  0.49584274     0.09000
H1481       H  0.42505055  0.23317126  0.46847053     0.09000
H1482       H  0.42417986  0.20954551  0.49702715     0.05800
C1483       C  0.30394836  0.35348820  0.48903634    -0.20000
C1484       C  0.27859968  0.34644762  0.47895172    -0.06600
C1485       C  0.26240233  0.36651478  0.46614571     0.14300
C1486       C  0.27108133  0.39357955  0.46604983    -0.20100
C1487       C  0.29542821  0.40068345  0.47829037    -0.06600
C1488       C  0.31261281  0.38033024  0.48871199     0.14300
C1489       C  0.34019459  0.38685876  0.49917402    -0.23400
H1490       H  0.31684823  0.33791528  0.49788362     0.15500
H1491       H  0.25837136  0.40948545  0.45756361     0.15600
C1492       C  0.23562501  0.35985940  0.45383648    -0.23400
H1493       H  0.35156005  0.36819209  0.50500156     0.05800
H1494       H  0.33881750  0.39989930  0.51769452     0.09000
H1495       H  0.35174742  0.39750578  0.48282620     0.09000
H1496       H  0.22233684  0.35088093  0.46982166     0.09000
H1497       H  0.23845892  0.34524384  0.43666944     0.09000
H1498       H  0.22543446  0.37823899  0.44540958     0.05800
C1499       C  0.22680201  0.29027329  0.60561437    -0.20000
C1500       C  0.21867901  0.26680459  0.59179572    -0.06600
C1501       C  0.20259613  0.24748642  0.60591703     0.14300
C1502       C  0.19938421  0.24994264  0.63441676    -0.20100
C1503       C  0.21275073  0.27029196  0.64862979    -0.06600
C1504       C  0.22408857  0.29220744  0.63409126     0.14300
C1505       C  0.23528727  0.31673525  0.64831310    -0.23400
H1506       H  0.23753370  0.30604645  0.59461342     0.15500
H1507       H  0.18985739  0.23372093  0.64591986     0.15600
C1508       C  0.19107378  0.22280571  0.59215519    -0.23400
H1509       H  0.22582459  0.33542970  0.63974052     0.05800
H1510       H  0.25731057  0.31759847  0.64481888     0.09000
H1511       H  0.23124416  0.31651433  0.67083122     0.09000
H1512       H  0.20749070  0.20947960  0.58427520     0.09000
H1513       H  0.17775130  0.22920633  0.57502599     0.09000
H1514       H  0.17888801  0.21046412  0.60668574     0.05800
C1515       C  0.23572051  0.21168807  0.39378825    -0.20000
C1516       C  0.26201813  0.21366893  0.40372075    -0.06600
C1517       C  0.28400785  0.20806622  0.38620414     0.14300
C1518       C  0.27918631  0.20428068  0.35816936    -0.20100
C1519       C  0.25307457  0.20667560  0.34761013    -0.06600
C1520       C  0.23092141  0.20825978  0.36574429     0.14300
C1521       C  0.20240115  0.20693158  0.35566646    -0.23400
H1522       H  0.21888534  0.21467728  0.40778848     0.15500
H1523       H  0.29613615  0.20242853  0.34414198     0.15600
C1524       C  0.31251201  0.20846296  0.39636395    -0.23400
H1525       H  0.18782146  0.20655977  0.37308739     0.05800
H1526       H  0.19974519  0.18811451  0.34348887     0.09000
H1527       H  0.19736898  0.22485450  0.34275304     0.09000
H1528       H  0.31540661  0.19245959  0.41226757     0.09000
H1529       H  0.31697418  0.22863228  0.40530143     0.09000
H1530       H  0.32718766  0.20452548  0.37947317     0.05800
C1531       C  0.23973383  0.62024112  0.50358347    -0.20000
C1532       C  0.25787562  0.63835253  0.51570531    -0.06600
C1533       C  0.28387212  0.62865137  0.52281868     0.14300
C1534       C  0.29102132  0.60158140  0.51706227    -0.20100
C1535       C  0.27324731  0.58409836  0.50394281    -0.06600
C1536       C  0.24715833  0.59324241  0.49769248     0.14300
C1537       C  0.22724873  0.57433796  0.48500426    -0.23400
H1538       H  0.21986935  0.62745516  0.49799727     0.15500
H1539       H  0.31088814  0.59402969  0.52217104     0.15600
C1540       C  0.30480231  0.64687465  0.53500905    -0.23400
H1541       H  0.20750821  0.58449725  0.48174219     0.05800
H1542       H  0.22416397  0.55657371  0.49878671     0.09000
H1543       H  0.23488873  0.56713596  0.46473849     0.09000
H1544       H  0.29778075  0.65464403  0.55528348     0.09000
H1545       H  0.30882507  0.66413609  0.52083425     0.09000
H1546       H  0.32412539  0.63593774  0.53838441     0.05800
C1547       C  0.35885574  0.71174554  0.53817573    -0.20000
C1548       C  0.35099434  0.73522580  0.52367882    -0.06600
C1549       C  0.37114354  0.75283137  0.51350368     0.14300
C1550       C  0.39836379  0.74551414  0.51660044    -0.20100
C1551       C  0.40607257  0.72122482  0.52968923    -0.06600
C1552       C  0.38599050  0.70446730  0.54112684     0.14300
C1553       C  0.39294237  0.67823028  0.55540172    -0.23400
H1554       H  0.34362040  0.69825374  0.54621306     0.15500
H1555       H  0.41382525  0.75822635  0.50774817     0.15600
C1556       C  0.36428032  0.77932094  0.49942673    -0.23400
H1557       H  0.37477222  0.66653178  0.56106708     0.05800
H1558       H  0.40356527  0.68293982  0.57468656     0.09000
H1559       H  0.40571728  0.66526084  0.54185673     0.09000
H1560       H  0.35103457  0.79177980  0.51299778     0.09000
H1561       H  0.35410926  0.77550094  0.47958394     0.09000
H1562       H  0.38252147  0.79131237  0.49477661     0.05800
C1563       C  0.20475784  0.76499846  0.61211905    -0.20000
C1564       C  0.22689266  0.77396942  0.59702800    -0.06600
C1565       C  0.24631536  0.79056514  0.60917079     0.14300
C1566       C  0.24536522  0.79439785  0.63758548    -0.20100
C1567       C  0.22577675  0.78133524  0.65341250    -0.06600
C1568       C  0.20396833  0.76855559  0.64060092     0.14300
C1569       C  0.18076834  0.75748561  0.65706549    -0.23400
H1570       H  0.18938546  0.75328423  0.60203880     0.15500
H1571       H  0.26170926  0.80469738  0.64766814     0.15600
C1572       C  0.26882162  0.80270137  0.59240967    -0.23400
H1573       H  0.16492766  0.74934523  0.64349116     0.05800
H1574       H  0.17167327  0.77393237  0.66977564     0.09000
H1575       H  0.18763847  0.74073282  0.67068106     0.09000
H1576       H  0.26033131  0.81593096  0.57598624     0.09000
H1577       H  0.28115136  0.78634460  0.58277321     0.09000
H1578       H  0.28221115  0.81520806  0.60530809     0.05800
C1579       C  0.27771199  0.73178527  0.35684072    -0.20000
C1580       C  0.25354602  0.72251468  0.34581022    -0.06600
C1581       C  0.23482663  0.70906838  0.36265332     0.14300
C1582       C  0.23916463  0.70851141  0.39085705    -0.20100
C1583       C  0.26140624  0.72150907  0.40248037    -0.06600
C1584       C  0.28199320  0.73147797  0.38515282     0.14300
C1585       C  0.30816265  0.74218256  0.39592272    -0.23400
H1586       H  0.29262000  0.74094125  0.34344884     0.15500
H1587       H  0.22394688  0.69944598  0.40390553     0.15600
C1588       C  0.21024010  0.69549917  0.35130140    -0.23400
H1589       H  0.32264015  0.74635067  0.37895311     0.05800
H1590       H  0.31757460  0.72691343  0.40982155     0.09000
H1591       H  0.30481079  0.76158389  0.40702993     0.09000
H1592       H  0.21622581  0.68103371  0.33480356     0.09000
H1593       H  0.19597804  0.71087411  0.34302364     0.09000
H1594       H  0.19934375  0.68388491  0.36745375     0.05800
C1595       C  0.71739094  0.37332544  0.47484682    -0.20000
C1596       C  0.74336905  0.36618788  0.48319390    -0.06600
C1597       C  0.76160914  0.38654704  0.49070646     0.14300
C1598       C  0.75297102  0.41376623  0.49063731    -0.20100
C1599       C  0.72658099  0.42063469  0.48350096    -0.06600
C1600       C  0.70869220  0.40036088  0.47508012     0.14300
C1601       C  0.67993577  0.40706360  0.46812393    -0.23400
H1602       H  0.70334009  0.35744970  0.46982610     0.15500
H1603       H  0.76638924  0.42965494  0.49710830     0.15600
C1604       C  0.78943751  0.37940617  0.50045860    -0.23400
H1605       H  0.66830025  0.38851297  0.46360198     0.05800
H1606       H  0.67908548  0.42031468  0.44961926     0.09000
H1607       H  0.67009383  0.41760215  0.48575749     0.09000
H1608       H  0.80056511  0.36846757  0.48391444     0.09000
H1609       H  0.78824636  0.36621956  0.51903093     0.09000
H1610       H  0.80093395  0.39780494  0.50589887     0.05800
C1611       C  0.60840180  0.29227742  0.55070684    -0.20000
C1612       C  0.59187954  0.27594902  0.53455862    -0.06600
C1613       C  0.60377993  0.25489658  0.51882648     0.14300
C1614       C  0.63189547  0.25248643  0.51749705    -0.20100
C1615       C  0.64869861  0.27016019  0.53207631    -0.06600
C1616       C  0.63649170  0.28971977  0.54987924     0.14300
C1617       C  0.65246716  0.30854468  0.56780213    -0.23400
H1618       H  0.59925140  0.30830742  0.56290260     0.15500
H1619       H  0.64065951  0.23683124  0.50450127     0.15600
C1620       C  0.58736480  0.23445569  0.50352557    -0.23400
H1621       H  0.63931884  0.32122381  0.58127349     0.05800
H1622       H  0.66432299  0.32268146  0.55481159     0.09000
H1623       H  0.66593502  0.29653344  0.58144406     0.09000
H1624       H  0.59098087  0.23659901  0.48102413     0.09000
H1625       H  0.56556757  0.23666952  0.50777112     0.09000
H1626       H  0.59337605  0.21363752  0.51006297     0.05800
C1627       C  0.79639044  0.29415910  0.62183852    -0.20000
C1628       C  0.77243135  0.30346983  0.60974427    -0.06600
C1629       C  0.75246236  0.31605658  0.62644039     0.14300
C1630       C  0.75447329  0.31329946  0.65498195    -0.20100
C1631       C  0.77571416  0.29850378  0.66646008    -0.06600
C1632       C  0.79800444  0.29093883  0.65030624     0.14300
C1633       C  0.82199607  0.27673714  0.66274634    -0.23400
H1634       H  0.81244017  0.28608292  0.60896423     0.15500
H1635       H  0.73783342  0.31958871  0.66807136     0.15600
C1636       C  0.72782405  0.32986726  0.61481423    -0.23400
H1637       H  0.83758310  0.27195895  0.64696585     0.05800
H1638       H  0.81580121  0.25737437  0.67257999     0.09000
H1639       H  0.83106546  0.28999986  0.67852903     0.09000
H1640       H  0.71503468  0.31490736  0.60420807     0.09000
H1641       H  0.73390489  0.34612887  0.60021740     0.09000
H1642       H  0.71536154  0.33947550  0.63124188     0.05800
C1643       C  0.72444661  0.22805722  0.40413496    -0.20000
C1644       C  0.74873422  0.23306076  0.41731020    -0.06600
C1645       C  0.77332022  0.22824556  0.40342448     0.14300
C1646       C  0.77285711  0.22133021  0.37563463    -0.20100
C1647       C  0.74858129  0.22021597  0.36128125    -0.06600
C1648       C  0.72390798  0.22201274  0.37603467     0.14300
C1649       C  0.69691396  0.21965113  0.36237698    -0.23400
H1650       H  0.70575298  0.23090913  0.41538687     0.15500
H1651       H  0.79169652  0.21896407  0.36453631     0.15600
C1652       C  0.80011462  0.23077002  0.41749362    -0.23400
H1653       H  0.68012703  0.22124045  0.37749370     0.05800
H1654       H  0.69540299  0.19960937  0.35212778     0.09000
H1655       H  0.69410847  0.23625485  0.34709263     0.09000
H1656       H  0.80053648  0.21786140  0.43629573     0.09000
H1657       H  0.80382177  0.25221551  0.42309501     0.09000
H1658       H  0.81694967  0.22414013  0.40388672     0.05800
C1659       C  0.69321271  0.64988340  0.49175967    -0.20000
C1660       C  0.71833117  0.65752639  0.50226438    -0.06600
C1661       C  0.73587872  0.63703757  0.51244460     0.14300
C1662       C  0.72838116  0.60962313  0.51032255    -0.20100
C1663       C  0.70402323  0.60230838  0.49818803    -0.06600
C1664       C  0.68593220  0.62264361  0.48957673     0.14300
C1665       C  0.65867876  0.61560245  0.47862195    -0.23400
H1666       H  0.67918804  0.66534785  0.48471456     0.15500
H1667       H  0.74177021  0.59368959  0.51757765     0.15600
C1668       C  0.76267362  0.64364803  0.52476543    -0.23400
H1669       H  0.64647844  0.63405630  0.47405444     0.05800
H1670       H  0.64762897  0.60329974  0.49410726     0.09000
H1671       H  0.66076667  0.60393809  0.45921627     0.09000
H1672       H  0.75971413  0.65644769  0.54335107     0.09000
H1673       H  0.77521681  0.65455811  0.50941012     0.09000
H1674       H  0.77381353  0.62502665  0.53115093     0.05800
C1675       C  0.62565878  0.72058598  0.49079416    -0.20000
C1676       C  0.63063108  0.74858214  0.48977603    -0.06600
C1677       C  0.60907406  0.76708478  0.49407015     0.14300
C1678       C  0.58307825  0.75703288  0.49926186    -0.20100
C1679       C  0.57846375  0.72900989  0.50087076    -0.06600
C1680       C  0.59999944  0.71063583  0.49669093     0.14300
C1681       C  0.59590622  0.68045037  0.49899327    -0.23400
H1682       H  0.64221858  0.70636569  0.48797638     0.15500
H1683       H  0.56634757  0.77096446  0.50228556     0.15600
C1684       C  0.61333223  0.79725890  0.49255008    -0.23400
H1685       H  0.61485631  0.66890300  0.49535657     0.05800
H1686       H  0.58108138  0.67380681  0.48358393     0.09000
H1687       H  0.58846298  0.67528183  0.51995556     0.09000
H1688       H  0.62180729  0.80270298  0.47206692     0.09000
H1689       H  0.62737276  0.80360925  0.50889283     0.09000
H1690       H  0.59422232  0.80875900  0.49544296     0.05800
C1691       C  0.76193299  0.71013909  0.38920927    -0.20000
C1692       C  0.76972114  0.73530075  0.39988339    -0.06600
C1693       C  0.79061188  0.74981923  0.38642022     0.14300
C1694       C  0.79825501  0.74192220  0.35984768    -0.20100
C1695       C  0.78472853  0.72089583  0.34681414    -0.06600
C1696       C  0.77010633  0.70231693  0.36290602     0.14300
C1697       C  0.76050140  0.67580285  0.35142719    -0.23400
H1698       H  0.74823403  0.69727128  0.40061792     0.15500
H1699       H  0.81123496  0.75501691  0.34782471     0.15600
C1700       C  0.80363075  0.77458501  0.39850706    -0.23400
H1701       H  0.76750690  0.65883815  0.36478889     0.05800
H1702       H  0.76849207  0.67218456  0.33031325     0.09000
H1703       H  0.73823236  0.67580278  0.35077787     0.09000
H1704       H  0.81319095  0.76922343  0.41843526     0.09000
H1705       H  0.78849676  0.79104044  0.40151574     0.09000
H1706       H  0.81960667  0.78270688  0.38479802     0.05800
C1707       C  0.71860512  0.78572858  0.60754970    -0.20000
C1708       C  0.74108104  0.77808697  0.59170439    -0.06600
C1709       C  0.76657908  0.77581520  0.60420654     0.14300
C1710       C  0.76822808  0.77795030  0.63276255    -0.20100
C1711       C  0.74518202  0.78223889  0.64887454    -0.06600
C1712       C  0.72028418  0.78773334  0.63618182     0.14300
C1713       C  0.69510474  0.79366201  0.65262895    -0.23400
H1714       H  0.69927061  0.78836031  0.59773281     0.15500
H1715       H  0.78736867  0.77450245  0.64277002     0.15600
C1716       C  0.79209290  0.77090759  0.58789883    -0.23400
H1717       H  0.67744010  0.79691873  0.63913093     0.05800
H1718       H  0.69776230  0.81240287  0.66491808     0.09000
H1719       H  0.69061805  0.77636238  0.66659853     0.09000
H1720       H  0.79385865  0.78630307  0.57122226     0.09000
H1721       H  0.79231381  0.75020413  0.57897102     0.09000
H1722       H  0.81016436  0.77245428  0.60104898     0.05800
C1723       C  0.75415832  0.10806942  0.71695473    -0.20000
C1724       C  0.77896872  0.09885417  0.72715715    -0.06600
C1725       C  0.80093804  0.11667935  0.72786647     0.14300
C1726       C  0.79655015  0.14411716  0.72167304    -0.20100
C1727       C  0.77076043  0.15394835  0.71546308    -0.06600
C1728       C  0.74978112  0.13561120  0.71105406     0.14300
C1729       C  0.72226051  0.14538613  0.70267309    -0.23400
H1730       H  0.73763676  0.09401288  0.71549229     0.15500
H1731       H  0.81256435  0.15849214  0.72487756     0.15600
C1732       C  0.82824128  0.10760970  0.73771830    -0.23400
H1733       H  0.70816968  0.12825122  0.70023105     0.05800
H1734       H  0.72363334  0.15629873  0.68266008     0.09000
H1735       H  0.71381764  0.15933055  0.71852326     0.09000
H1736       H  0.83657831  0.09184296  0.72368629     0.09000
H1737       H  0.82666788  0.09924081  0.75894145     0.09000
H1738       H  0.84263614  0.12467171  0.73810417     0.05800
C1739       C  0.74116603  0.89611516  0.78915541    -0.20000
C1740       C  0.76759882  0.90561778  0.78872305    -0.06600
C1741       C  0.78932706  0.88720631  0.78739886     0.14300
C1742       C  0.78402393  0.85978971  0.78344056    -0.20100
C1743       C  0.75760269  0.85061307  0.78041348    -0.06600
C1744       C  0.73579138  0.86864901  0.78507242     0.14300
C1745       C  0.70702171  0.85938780  0.78555999    -0.23400
H1746       H  0.72464261  0.91055240  0.79087647     0.15500
H1747       H  0.80077508  0.84580141  0.78072619     0.15600
C1748       C  0.81804238  0.89653288  0.78779697    -0.23400
H1749       H  0.69305420  0.87603792  0.79180043     0.05800
H1750       H  0.70470222  0.84251171  0.80060433     0.09000
H1751       H  0.70086627  0.85260858  0.76479783     0.09000
H1752       H  0.82210636  0.90693616  0.80756391     0.09000
H1753       H  0.82178190  0.91070140  0.77036997     0.09000
H1754       H  0.83245181  0.87926160  0.78585351     0.05800
C1755       C  0.74019611  0.11957110  0.53616246    -0.20000
C1756       C  0.76648750  0.10929035  0.53610252    -0.06600
C1757       C  0.78813821  0.12680671  0.54061624     0.14300
C1758       C  0.78311548  0.15479306  0.54278854    -0.20100
C1759       C  0.75692505  0.16551748  0.54040179    -0.06600
C1760       C  0.73505193  0.14751608  0.53832903     0.14300
C1761       C  0.70630521  0.15743728  0.53837296    -0.23400
H1762       H  0.72369588  0.10569069  0.53340384     0.15500
H1763       H  0.79992429  0.16843881  0.54464731     0.15600
C1764       C  0.81649154  0.11602001  0.54223017    -0.23400
H1765       H  0.69201665  0.14029765  0.53934931     0.05800
H1766       H  0.70188470  0.16899031  0.51925940     0.09000
H1767       H  0.70254142  0.17049300  0.55663779     0.09000
H1768       H  0.82215256  0.10573450  0.52269700     0.09000
H1769       H  0.81809759  0.10122384  0.55947389     0.09000
H1770       H  0.83106256  0.13251781  0.54584371     0.05800
C1771       C  0.75737760  0.90527061  0.46918704    -0.20000
C1772       C  0.74265809  0.92001741  0.48878393    -0.06600
C1773       C  0.72085968  0.90776834  0.50247115     0.14300
C1774       C  0.71560919  0.88025369  0.49777425    -0.20100
C1775       C  0.73170972  0.86461401  0.47973066    -0.06600
C1776       C  0.75209100  0.87787729  0.46411407     0.14300
C1777       C  0.76900266  0.86367354  0.44247698    -0.23400
H1778       H  0.77370642  0.91516355  0.45836941     0.15500
H1779       H  0.69962378  0.87067730  0.50937226     0.15600
C1780       C  0.70331217  0.92364732  0.52221210    -0.23400
H1781       H  0.78183611  0.87812310  0.43087576     0.05800
H1782       H  0.75584455  0.85361973  0.42731408     0.09000
H1783       H  0.78271000  0.84860230  0.45220942     0.09000
H1784       H  0.69442051  0.94148139  0.51142296     0.09000
H1785       H  0.71529212  0.93074392  0.53991225     0.09000
H1786       H  0.68665323  0.91116502  0.53050090     0.05800
C1787       C  0.76736764  0.97088449  0.62077020    -0.20000
C1788       C  0.78576799  0.98681513  0.60625216    -0.06600
C1789       C  0.80849619  0.99683627  0.61992966     0.14300
C1790       C  0.81038232  0.99366001  0.64856383    -0.20100
C1791       C  0.79017627  0.98052399  0.66382851    -0.06600
C1792       C  0.76941883  0.96714106  0.64930267     0.14300
C1793       C  0.74874974  0.94951668  0.66328795    -0.23400
H1794       H  0.75043498  0.96253130  0.60988280     0.15500
H1795       H  0.82698025  0.00295458  0.65915428     0.15600
C1796       C  0.83052289  0.01126551  0.60446636    -0.23400
H1797       H  0.73628287  0.93860406  0.64810169     0.05800
H1798       H  0.73480845  0.96207066  0.67596749     0.09000
H1799       H  0.75890490  0.93393606  0.67625869     0.09000
H1800       H  0.82286918  0.03035682  0.59509295     0.09000
H1801       H  0.83860754  0.99784485  0.58797934     0.09000
H1802       H  0.84734698  0.01664243  0.61823592     0.05800
C1803       C  0.73146833  0.88875171  0.29377319    -0.20000
C1804       C  0.75653065  0.90079203  0.28998486    -0.06600
C1805       C  0.77998211  0.88451775  0.28887453     0.14300
C1806       C  0.77740704  0.85632323  0.28793647    -0.20100
C1807       C  0.75197257  0.84432414  0.28761668    -0.06600
C1808       C  0.72879184  0.86056478  0.29246195     0.14300
C1809       C  0.70117770  0.84862315  0.29570771    -0.23400
H1810       H  0.71365081  0.90150118  0.29547808     0.15500
H1811       H  0.79527776  0.84383423  0.28524130     0.15600
C1812       C  0.80763234  0.89673401  0.28827673    -0.23400
H1813       H  0.68618726  0.86419114  0.30231252     0.05800
H1814       H  0.70157046  0.83237760  0.31163211     0.09000
H1815       H  0.69412314  0.84028833  0.27587431     0.09000
H1816       H  0.80997178  0.91046468  0.30618437     0.09000
H1817       H  0.81091216  0.90828771  0.26891882     0.09000
H1818       H  0.82359453  0.88085362  0.28943910     0.05800
C1819       C  0.72520121  0.10493562  0.21144407    -0.20000
C1820       C  0.71902694  0.09051610  0.23540181    -0.06600
C1821       C  0.70688168  0.10357115  0.25806920     0.14300
C1822       C  0.70507798  0.13182106  0.25794971    -0.20100
C1823       C  0.71602498  0.14672926  0.23597372    -0.06600
C1824       C  0.72368493  0.13326730  0.21134476     0.14300
C1825       C  0.73127136  0.14844091  0.18542033    -0.23400
H1826       H  0.73355941  0.09426053  0.19380055     0.15500
H1827       H  0.69813461  0.14214733  0.27640600     0.15600
C1828       C  0.69776918  0.08780646  0.28309313    -0.23400
H1829       H  0.73369983  0.13443904  0.16765254     0.05800
H1830       H  0.75061609  0.15900233  0.18788908     0.09000
H1831       H  0.71523670  0.16339654  0.18022929     0.09000
H1832       H  0.71508114  0.07702206  0.29260145     0.09000
H1833       H  0.68257212  0.07270360  0.27693049     0.09000
H1834       H  0.68857217  0.10129385  0.29893470     0.05800
C1835       C  0.79172871  0.02728803  0.39933987    -0.20000
C1836       C  0.76902230  0.03679035  0.41374771    -0.06600
C1837       C  0.74687813  0.04742371  0.39920049     0.14300
C1838       C  0.74683510  0.04581221  0.37040959    -0.20100
C1839       C  0.76851960  0.03401348  0.35611597    -0.06600
C1840       C  0.79172985  0.02579283  0.37048715     0.14300
C1841       C  0.81557496  0.01363314  0.35556497    -0.23400
H1842       H  0.80865919  0.01923806  0.41078769     0.15500
H1843       H  0.72910136  0.05207930  0.35911957     0.15600
C1844       C  0.72264778  0.05868286  0.41417126    -0.23400
H1845       H  0.83191027  0.00795458  0.37000914     0.05800
H1846       H  0.82362540  0.02859666  0.34055912     0.09000
H1847       H  0.80951513  0.99506427  0.34438925     0.09000
H1848       H  0.72864579  0.07609665  0.42713258     0.09000
H1849       H  0.71372089  0.04275900  0.42752057     0.09000
H1850       H  0.70699561  0.06592766  0.39962890     0.05800
C1851       C  0.60934281  0.98647548  0.30689431    -0.20000
C1852       C  0.59176786  0.99318704  0.28553599    -0.06600
C1853       C  0.60221415  0.99775626  0.25884580     0.14300
C1854       C  0.63012017  0.99592785  0.25420921    -0.20100
C1855       C  0.64811695  0.98964360  0.27566346    -0.06600
C1856       C  0.63725391  0.98466452  0.30250325     0.14300
C1857       C  0.65450495  0.97713098  0.32685781    -0.23400
H1858       H  0.60103837  0.98265419  0.32723351     0.15500
H1859       H  0.63788547  0.99982365  0.23368363     0.15600
C1860       C  0.58379771  0.00441589  0.23524501    -0.23400
H1861       H  0.64228206  0.97257442  0.34550748     0.05800
H1862       H  0.66776272  0.99426567  0.33219071     0.09000
H1863       H  0.66666266  0.95869109  0.32205895     0.09000
H1864       H  0.57244473  0.02343876  0.23972759     0.09000
H1865       H  0.56943599  0.98760641  0.23231436     0.09000
H1866       H  0.59507531  0.00730732  0.21565224     0.05800
C1867       C  0.23778345  0.13191948  0.20849044    -0.20000
C1868       C  0.26288015  0.14279925  0.21505927    -0.06600
C1869       C  0.28486760  0.12522819  0.22034062     0.14300
C1870       C  0.28001130  0.09755300  0.22353594    -0.20100
C1871       C  0.25383262  0.08764477  0.22197877    -0.06600
C1872       C  0.23283477  0.10440445  0.21234947     0.14300
C1873       C  0.20517719  0.09360402  0.20678637    -0.23400
H1874       H  0.22113331  0.14526589  0.20322673     0.15500
H1875       H  0.29629057  0.08403407  0.22954808     0.15600
C1876       C  0.31314012  0.13538944  0.22342399    -0.23400
H1877       H  0.19183242  0.10942428  0.19768990     0.05800
H1878       H  0.19557299  0.08658524  0.22618062     0.09000
H1879       H  0.20662693  0.07646663  0.19201785     0.09000
H1880       H  0.31851965  0.14821702  0.20539698     0.09000
H1881       H  0.32787080  0.11832030  0.22446241     0.09000
H1882       H  0.31523470  0.14720386  0.24266592     0.05800
C1883       C  0.21300801  0.88335290  0.29218873    -0.20000
C1884       C  0.23742145  0.89713256  0.29250324    -0.06600
C1885       C  0.26176079  0.88271929  0.29642590     0.14300
C1886       C  0.26128872  0.85440383  0.29603583    -0.20100
C1887       C  0.23718887  0.84072519  0.29179311    -0.06600
C1888       C  0.21254950  0.85507154  0.29182018     0.14300
C1889       C  0.18604103  0.84093508  0.28871761    -0.23400
H1890       H  0.19441028  0.89477957  0.28998761     0.15500
H1891       H  0.28000571  0.84295948  0.29652535     0.15600
C1892       C  0.28839551  0.89682424  0.29842949    -0.23400
H1893       H  0.16892300  0.85557399  0.28854899     0.05800
H1894       H  0.18294550  0.82673873  0.30624757     0.09000
H1895       H  0.18573150  0.82947689  0.26905405     0.09000
H1896       H  0.28839497  0.91024695  0.31676049     0.09000
H1897       H  0.29210155  0.90907722  0.27955663     0.09000
H1898       H  0.30530689  0.88210426  0.30063796     0.05800
C1899       C  0.36266632  0.98855708  0.25546451    -0.20000
C1900       C  0.34348750  0.99406435  0.27615180    -0.06600
C1901       C  0.35254650  0.00207048  0.30266808     0.14300
C1902       C  0.38021073  0.00364233  0.30774846    -0.20100
C1903       C  0.39914242  0.99740183  0.28727508    -0.06600
C1904       C  0.39033170  0.98995757  0.26077917     0.14300
C1905       C  0.41020362  0.98349634  0.23814117    -0.23400
H1906       H  0.35601111  0.98269467  0.23514416     0.15500
H1907       H  0.38722343  0.00941429  0.32797427     0.15600
C1908       C  0.33343169  0.00965368  0.32572919    -0.23400
H1909       H  0.40004060  0.97845038  0.21854885     0.05800
H1910       H  0.42288126  0.96580439  0.24416342     0.09000
H1911       H  0.42322034  0.00130324  0.23436329     0.09000
H1912       H  0.32183355  0.99164447  0.33237722     0.09000
H1913       H  0.31957035  0.02608339  0.31880935     0.09000
H1914       H  0.34418161  0.01715692  0.34412588     0.05800
C1915       C  0.24812314  0.10755005  0.55001102    -0.20000
C1916       C  0.26492597  0.09080356  0.53416617    -0.06600
C1917       C  0.28638510  0.10221347  0.51914659     0.14300
C1918       C  0.28823360  0.13050432  0.51720875    -0.20100
C1919       C  0.26905223  0.14752285  0.52995575    -0.06600
C1920       C  0.25004378  0.13587324  0.54839431     0.14300
C1921       C  0.23121583  0.15278406  0.56597106    -0.23400
H1922       H  0.23213115  0.09846986  0.56204520     0.15500
H1923       H  0.30355520  0.13917811  0.50400616     0.15600
C1924       C  0.30659962  0.08450916  0.50422481    -0.23400
H1925       H  0.22036169  0.14012328  0.58131494     0.05800
H1926       H  0.21577150  0.16292162  0.55307022     0.09000
H1927       H  0.24276716  0.16813145  0.57751026     0.09000
H1928       H  0.29665838  0.07244575  0.48804249     0.09000
H1929       H  0.31638219  0.07049387  0.51915592     0.09000
H1930       H  0.32248525  0.09674451  0.49410710     0.05800
C1931       C  0.27145013  0.88865915  0.49555673    -0.20000
C1932       C  0.24748517  0.90131323  0.48720373    -0.06600
C1933       C  0.22711342  0.88586929  0.47506282     0.14300
C1934       C  0.23091419  0.85781595  0.47228778    -0.20100
C1935       C  0.25427252  0.84482999  0.48197437    -0.06600
C1936       C  0.27503756  0.86045769  0.49333194     0.14300
C1937       C  0.30000342  0.84737055  0.50498319    -0.23400
H1938       H  0.28684339  0.90079391  0.50506807     0.15500
H1939       H  0.21488362  0.84566646  0.46396149     0.15600
C1940       C  0.20077184  0.89863285  0.46664674    -0.23400
H1941       H  0.31369468  0.86263198  0.51387008     0.05800
H1942       H  0.31110535  0.83638992  0.48845634     0.09000
H1943       H  0.29449688  0.83286940  0.52161718     0.09000
H1944       H  0.20409733  0.91403613  0.45029697     0.09000
H1945       H  0.19107023  0.90851800  0.48473305     0.09000
H1946       H  0.18671469  0.88332942  0.45847004     0.05800
C1947       C  0.20736331  0.01764343  0.40276869    -0.20000
C1948       C  0.23164335  0.02363305  0.41575678    -0.06600
C1949       C  0.25342675  0.03355652  0.40014448     0.14300
C1950       C  0.25104615  0.03540639  0.37149261    -0.20100
C1951       C  0.22755967  0.02725430  0.35825773    -0.06600
C1952       C  0.20513978  0.01914371  0.37400034     0.14300
C1953       C  0.17978864  0.00990169  0.36032780    -0.23400
H1954       H  0.19080897  0.00996147  0.41501114     0.15500
H1955       H  0.26833585  0.04109953  0.35915048     0.15600
C1956       C  0.27979460  0.04018492  0.41345238    -0.23400
H1957       H  0.16431021  0.00388984  0.37568744     0.05800
H1958       H  0.18418340  0.99209927  0.34698103     0.09000
H1959       H  0.17138741  0.02664706  0.34754030     0.09000
H1960       H  0.28790108  0.02197438  0.42424251     0.09000
H1961       H  0.27687909  0.05686620  0.42852622     0.09000
H1962       H  0.29496439  0.04682544  0.39803885     0.05800
C1963       C  0.21262674  0.88205826  0.79402636    -0.20000
C1964       C  0.23642781  0.89704066  0.79587348    -0.06600
C1965       C  0.26082604  0.88331903  0.80230120     0.14300
C1966       C  0.26116485  0.85493536  0.80319645    -0.20100
C1967       C  0.23811739  0.84022411  0.79734456    -0.06600
C1968       C  0.21327519  0.85367310  0.79439113     0.14300
C1969       C  0.18796889  0.83807284  0.78908382    -0.23400
H1970       H  0.19373348  0.89246781  0.79018333     0.15500
H1971       H  0.28012592  0.84411576  0.80531159     0.15600
C1972       C  0.28707619  0.89784311  0.80587969    -0.23400
H1973       H  0.17023171  0.85178507  0.78711086     0.05800
H1974       H  0.18421340  0.82384251  0.80645134     0.09000
H1975       H  0.19002152  0.82631357  0.76968188     0.09000
H1976       H  0.28552953  0.91209930  0.82350351     0.09000
H1977       H  0.29233899  0.90903784  0.78672257     0.09000
H1978       H  0.30388055  0.88350326  0.81029401     0.05800
C1979       C  0.20256314  0.10710732  0.73741431    -0.20000
C1980       C  0.22526258  0.09156006  0.72976328    -0.06600
C1981       C  0.24608314  0.10408930  0.71431162     0.14300
C1982       C  0.24535007  0.13225029  0.71080779    -0.20100
C1983       C  0.22461383  0.14802490  0.72221611    -0.06600
C1984       C  0.20199972  0.13532508  0.73389284     0.14300
C1985       C  0.17831420  0.15146911  0.74470236    -0.23400
H1986       H  0.18593201  0.09744037  0.74792499     0.15500
H1987       H  0.26222877  0.14233043  0.70111893     0.15600
C1988       C  0.27006785  0.08872564  0.70293364    -0.23400
H1989       H  0.16254820  0.13811867  0.75343803     0.05800
H1990       H  0.16921330  0.16344641  0.72766884     0.09000
H1991       H  0.18482954  0.16540605  0.76123983     0.09000
H1992       H  0.26330595  0.07277166  0.68852213     0.09000
H1993       H  0.28180390  0.07948660  0.71998618     0.09000
H1994       H  0.28384012  0.10218796  0.69123863     0.05800
C1995       C  0.25326019  0.95985295  0.62433169    -0.20000
C1996       C  0.23366823  0.97370689  0.60908359    -0.06600
C1997       C  0.20970567  0.98252079  0.62209734     0.14300
C1998       C  0.20677016  0.97917453  0.65068391    -0.20100
C1999       C  0.22750278  0.96766361  0.66636548    -0.06600
C2000       C  0.25052685  0.95683997  0.65294491     0.14300
C2001       C  0.27249579  0.94267895  0.66888091    -0.23400
H2002       H  0.27129682  0.95260075  0.61398672     0.15500
H2003       H  0.18925710  0.98760632  0.66107326     0.15600
C2004       C  0.18774793  0.99634398  0.60593051    -0.23400
H2005       H  0.28846638  0.93455663  0.65500458     0.05800
H2006       H  0.26395089  0.92539660  0.68064898     0.09000
H2007       H  0.28203574  0.95694416  0.68337683     0.09000
H2008       H  0.18072797  0.98256480  0.58948216     0.09000
H2009       H  0.19539667  0.01529136  0.59639291     0.09000
H2010       H  0.17027899  0.00177202  0.61922510     0.05800
C2011       C  0.62088805  0.01236457  0.76836557    -0.20000
C2012       C  0.60971865  0.00191308  0.74401480    -0.06600
C2013       C  0.62806550  0.99352509  0.72306731     0.14300
C2014       C  0.65635867  0.99503878  0.72724271    -0.20100
C2015       C  0.66765587  0.00542442  0.75170173    -0.06600
C2016       C  0.64914799  0.01423208  0.77246308     0.14300
C2017       C  0.65894959  0.02490593  0.79958059    -0.23400
H2018       H  0.60726511  0.01905578  0.78452736     0.15500
H2019       H  0.66981833  0.98832804  0.71094804     0.15600
C2020       C  0.61781732  0.98362370  0.69582051    -0.23400
H2021       H  0.64208983  0.02960003  0.81394039     0.05800
H2022       H  0.67025450  0.04393182  0.79621268     0.09000
H2023       H  0.67208527  0.00948481  0.80962078     0.09000
H2024       H  0.60504194  0.99961065  0.68620790     0.09000
H2025       H  0.60582462  0.96500461  0.69881212     0.09000
H2026       H  0.63449264  0.97870184  0.68131205     0.05800
C2027       C  0.39242910  0.99171837  0.77199334    -0.20000
C2028       C  0.40392131  0.99856525  0.74627440    -0.06600
C2029       C  0.38573049  0.00445167  0.72457501     0.14300
C2030       C  0.35733090  0.00374537  0.72908875    -0.20100
C2031       C  0.34560278  0.99689526  0.75488416    -0.06600
C2032       C  0.36405216  0.99077748  0.77658159     0.14300
C2033       C  0.35420255  0.98358622  0.80506262    -0.23400
H2034       H  0.40589977  0.98709520  0.78883941     0.15500
H2035       H  0.34414600  0.00835736  0.71201182     0.15600
C2036       C  0.39635852  0.01107959  0.69627664    -0.23400
H2037       H  0.37103634  0.98038373  0.81963970     0.05800
H2038       H  0.34265999  0.96445491  0.80441253     0.09000
H2039       H  0.34136045  0.00030103  0.81327976     0.09000
H2040       H  0.40886072  0.99387634  0.68855834     0.09000
H2041       H  0.40877939  0.02962196  0.69709483     0.09000
H2042       H  0.37989221  0.01477372  0.68137698     0.05800
C2043       C  0.26987923  0.49708196  0.39485354    -0.20000
C2044       C  0.28659474  0.50243722  0.37220201    -0.06600
C2045       C  0.31425208  0.50740831  0.37876492     0.14300
C2046       C  0.32379827  0.50672917  0.40684120    -0.20100
C2047       C  0.30681029  0.50147708  0.42968207    -0.06600
C2048       C  0.27890911  0.49680782  0.42265867     0.14300
C2049       C  0.25673215  0.49101772  0.44335881    -0.23400
H2050       H  0.24887060  0.49326170  0.39087137     0.15500
H2051       H  0.34479797  0.51030532  0.41087538     0.15600
C2052       C  0.33431560  0.51285972  0.35613810    -0.23400
H2053       H  0.24077744  0.50683107  0.44144906     0.05800
H2054       H  0.26249836  0.49046330  0.46515244     0.09000
H2055       H  0.24786509  0.47095000  0.43874669     0.09000
H2056       H  0.32895135  0.53200432  0.34526524     0.09000
H2057       H  0.33466146  0.49572547  0.34131044     0.09000
H2058       H  0.35493079  0.51512548  0.36430423     0.05800
C2059       C  0.36259784  0.47341667  0.27946207    -0.20000
C2060       C  0.35425428  0.49192263  0.25935726    -0.06600
C2061       C  0.37294373  0.50926833  0.24662977     0.14300
C2062       C  0.39994896  0.50761968  0.25452887    -0.20100
C2063       C  0.40821711  0.48974119  0.27550224    -0.06600
C2064       C  0.38911346  0.47255708  0.28834422     0.14300
C2065       C  0.39563335  0.45491201  0.31296399    -0.23400
H2066       H  0.34779161  0.46075689  0.28959959     0.15500
H2067       H  0.41452838  0.52097071  0.24508922     0.15600
C2068       C  0.36437611  0.52950814  0.22501522    -0.23400
H2069       H  0.37732137  0.44606489  0.32240939     0.05800
H2070       H  0.40556194  0.46709292  0.32910287     0.09000
H2071       H  0.40860108  0.43761262  0.30665525     0.09000
H2072       H  0.34985208  0.54432281  0.23398431     0.09000
H2073       H  0.35479453  0.51875123  0.20765475     0.09000
H2074       H  0.38170782  0.54102299  0.21672291     0.05800
C2075       C  0.22778706  0.63821871  0.27055597    -0.20000
C2076       C  0.22978661  0.64875512  0.24366962    -0.06600
C2077       C  0.23361617  0.63129706  0.22105465     0.14300
C2078       C  0.23732957  0.60366862  0.22620481    -0.20100
C2079       C  0.23789004  0.59367071  0.25329182    -0.06600
C2080       C  0.23213041  0.61073828  0.27571679     0.14300
C2081       C  0.23052739  0.60012081  0.30486772    -0.23400
H2082       H  0.22440220  0.65187016  0.28776469     0.15500
H2083       H  0.24112466  0.58995836  0.20913159     0.15600
C2084       C  0.23559812  0.64174109  0.19188382    -0.23400
H2085       H  0.22482356  0.61638834  0.31966774     0.05800
H2086       H  0.25029391  0.59172335  0.31122926     0.09000
H2087       H  0.21520349  0.58396129  0.30624813     0.09000
H2088       H  0.25250437  0.65614556  0.18999114     0.09000
H2089       H  0.21657133  0.65217800  0.18616595     0.09000
H2090       H  0.23918807  0.62503090  0.17693912     0.05800
C2091       C  0.25837865  0.38113885  0.29643175    -0.20000
C2092       C  0.24426598  0.39572675  0.27625464    -0.06600
C2093       C  0.22848154  0.38211394  0.25685402     0.14300
C2094       C  0.22807097  0.35385305  0.25724804    -0.20100
C2095       C  0.24351520  0.33915980  0.27617237    -0.06600
C2096       C  0.25850112  0.35270594  0.29639961     0.14300
C2097       C  0.27566293  0.33788825  0.31715862    -0.23400
H2098       H  0.27046469  0.39190304  0.31124753     0.15500
H2099       H  0.21686035  0.34309501  0.24169944     0.15600
C2100       C  0.21252907  0.39736567  0.23541345    -0.23400
H2101       H  0.26910828  0.34357017  0.33830254     0.05800
H2102       H  0.29696956  0.34371227  0.31428247     0.09000
H2103       H  0.27438545  0.31549942  0.31533660     0.09000
H2104       H  0.22616864  0.40905803  0.22176809     0.09000
H2105       H  0.19829252  0.41153247  0.24577889     0.09000
H2106       H  0.20079876  0.38345516  0.22228549     0.05800
C2107       C  0.51079640  0.68890568  0.40897397    -0.20000
C2108       C  0.48745951  0.70088346  0.39786147    -0.06600
C2109       C  0.46382333  0.69971316  0.41426244     0.14300
C2110       C  0.46486927  0.68927691  0.44154626    -0.20100
C2111       C  0.48907748  0.68147585  0.45444560    -0.06600
C2112       C  0.51155407  0.67809673  0.43618519     0.14300
C2113       C  0.53650666  0.66238250  0.44401554    -0.23400
H2114       H  0.52848886  0.68707605  0.39595533     0.15500
H2115       H  0.44623034  0.68577203  0.45206742     0.15600
C2116       C  0.43732367  0.70999218  0.40340249    -0.23400
H2117       H  0.53892674  0.64469510  0.43005282     0.05800
H2118       H  0.53593404  0.65446945  0.46533928     0.09000
H2119       H  0.55439344  0.67542090  0.44158507     0.09000
H2120       H  0.43087817  0.69740189  0.38578924     0.09000
H2121       H  0.43926754  0.73146162  0.39665957     0.09000
H2122       H  0.42127501  0.70917233  0.41938003     0.05800
C2123       C  0.51695554  0.59956235  0.31061391    -0.20000
C2124       C  0.49309484  0.61281618  0.30206992    -0.06600
C2125       C  0.46903067  0.59775495  0.30523116     0.14300
C2126       C  0.46977722  0.57038125  0.31458981    -0.20100
C2127       C  0.49382013  0.55574158  0.31935530    -0.06600
C2128       C  0.51737951  0.57209287  0.32041266     0.14300
C2129       C  0.54275565  0.56226150  0.33406369    -0.23400
H2130       H  0.53529465  0.61117256  0.31110674     0.15500
H2131       H  0.45100776  0.56089054  0.31958382     0.15600
C2132       C  0.44207425  0.61014659  0.29834323    -0.23400
H2133       H  0.54724645  0.57570895  0.35172448     0.05800
H2134       H  0.55987685  0.56310990  0.31935823     0.09000
H2135       H  0.54106385  0.54138553  0.34234023     0.09000
H2136       H  0.44244117  0.61827600  0.27697202     0.09000
H2137       H  0.43694159  0.62665367  0.31301087     0.09000
H2138       H  0.42577095  0.59497815  0.29963901     0.05800
C2139       C  0.60055970  0.75828683  0.28576514    -0.20000
C2140       C  0.59224327  0.73112597  0.28732550    -0.06600
C2141       C  0.61134464  0.70988098  0.28534159     0.14300
C2142       C  0.63831810  0.71636100  0.28143489    -0.20100
C2143       C  0.64656154  0.74344481  0.27897090    -0.06600
C2144       C  0.62756903  0.76474411  0.28130468     0.14300
C2145       C  0.63572145  0.79410222  0.27977691    -0.23400
H2146       H  0.58573918  0.77450320  0.28740006     0.15500
H2147       H  0.65308435  0.70009443  0.27975254     0.15600
C2148       C  0.60358933  0.68045644  0.28798315    -0.23400
H2149       H  0.61836473  0.80804262  0.28328706     0.05800
H2150       H  0.64419482  0.79870935  0.25910189     0.09000
H2151       H  0.65097549  0.79827700  0.29574340     0.09000
H2152       H  0.59049077  0.67463043  0.27064161     0.09000
H2153       H  0.59286210  0.67714979  0.30782539     0.09000
H2154       H  0.62143483  0.66673577  0.28752967     0.05800
C2155       C  0.38781248  0.75360313  0.25412275    -0.20000
C2156       C  0.39494743  0.73054161  0.26993205    -0.06600
C2157       C  0.37498960  0.71145823  0.27695634     0.14300
C2158       C  0.34873184  0.71615520  0.26811093    -0.20100
C2159       C  0.34171705  0.73933286  0.25263844    -0.06600
C2160       C  0.36151478  0.75829029  0.24545031     0.14300
C2161       C  0.35535374  0.78315839  0.22826763    -0.23400
H2162       H  0.40286956  0.76839184  0.24856406     0.15500
H2163       H  0.33333434  0.70182396  0.27399561     0.15600
C2164       C  0.38078874  0.68606321  0.29349850    -0.23400
H2165       H  0.37379758  0.79456788  0.22295664     0.05800
H2166       H  0.34186730  0.79720207  0.23980477     0.09000
H2167       H  0.34571811  0.77708013  0.20870087     0.09000
H2168       H  0.38786201  0.69155179  0.31436937     0.09000
H2169       H  0.39616347  0.67341167  0.28275551     0.09000
H2170       H  0.36263970  0.67341372  0.29626788     0.05800
C2171       C  0.50481028  0.84646369  0.31985844    -0.20000
C2172       C  0.49209554  0.83252193  0.29820261    -0.06600
C2173       C  0.47918716  0.84916760  0.27778825     0.14300
C2174       C  0.48005924  0.87801741  0.27933239    -0.20100
C2175       C  0.49311267  0.89175274  0.30070489    -0.06600
C2176       C  0.50534928  0.87537771  0.32144155     0.14300
C2177       C  0.51881263  0.88772904  0.34600362    -0.23400
H2178       H  0.51458332  0.83471434  0.33590248     0.15500
H2179       H  0.47047161  0.89013851  0.26344179     0.15600
C2180       C  0.46406874  0.83707880  0.25405224    -0.23400
H2181       H  0.50903912  0.88029619  0.36518866     0.05800
H2182       H  0.51760065  0.91020754  0.34613704     0.09000
H2183       H  0.54031193  0.88158829  0.34617677     0.09000
H2184       H  0.44778768  0.82390319  0.26199124     0.09000
H2185       H  0.47799195  0.82521408  0.24067157     0.09000
H2186       H  0.45456937  0.85294428  0.24090208     0.05800
C2187       C  0.72224602  0.51334668  0.39325194    -0.20000
C2188       C  0.70549423  0.50319669  0.37270065    -0.06600
C2189       C  0.67875996  0.49660341  0.38162891     0.14300
C2190       C  0.67004878  0.50031010  0.40970222    -0.20100
C2191       C  0.68721893  0.50947654  0.43058338    -0.06600
C2192       C  0.71435299  0.51543389  0.42148306     0.14300
C2193       C  0.73716999  0.52247426  0.44053504    -0.23400
H2194       H  0.74270050  0.51827912  0.38753988     0.15500
H2195       H  0.64988211  0.49467541  0.41557466     0.15600
C2196       C  0.65875994  0.48571469  0.36165944    -0.23400
H2197       H  0.74411158  0.54335864  0.43589411     0.05800
H2198       H  0.75417060  0.50809746  0.43695415     0.09000
H2199       H  0.73272073  0.52115829  0.46270419     0.09000
H2200       H  0.66582185  0.46591985  0.35331559     0.09000
H2201       H  0.65594389  0.50068931  0.34479052     0.09000
H2202       H  0.63898659  0.48222609  0.37165361     0.05800
C2203       C  0.62417071  0.48633863  0.28828487    -0.20000
C2204       C  0.63322384  0.48589412  0.26098895    -0.06600
C2205       C  0.61470631  0.48907624  0.23925667     0.14300
C2206       C  0.58718245  0.49178452  0.24564863    -0.20100
C2207       C  0.57845812  0.49262613  0.27316560    -0.06600
C2208       C  0.59722757  0.49062217  0.29464944     0.14300
C2209       C  0.58887435  0.49366479  0.32435361    -0.23400
H2210       H  0.63852921  0.48437293  0.30478591     0.15500
H2211       H  0.57249382  0.49331623  0.22935356     0.15600
C2212       C  0.62382313  0.48891871  0.20963229    -0.23400
H2213       H  0.60616861  0.49201095  0.33844520     0.05800
H2214       H  0.57457672  0.47768547  0.33017453     0.09000
H2215       H  0.57940624  0.51387415  0.32754448     0.09000
H2216       H  0.63470928  0.46963200  0.20510220     0.09000
H2217       H  0.63732712  0.50628259  0.20563360     0.09000
H2218       H  0.60659424  0.49071709  0.19531843     0.05800
C2219       C  0.77858350  0.38284615  0.26326197    -0.20000
C2220       C  0.75842544  0.39469517  0.27992654    -0.06600
C2221       C  0.74591056  0.37867059  0.30073933     0.14300
C2222       C  0.75140814  0.35078211  0.30160513    -0.20100
C2223       C  0.76881781  0.33888227  0.28243715    -0.06600
C2224       C  0.78366807  0.35498709  0.26408527     0.14300
C2225       C  0.80369632  0.34245994  0.24429018    -0.23400
H2226       H  0.78926367  0.39498583  0.24819288     0.15500
H2227       H  0.74026133  0.33784285  0.31562697     0.15600
C2228       C  0.72598280  0.39000694  0.32139040    -0.23400
H2229       H  0.81385916  0.35808517  0.23151333     0.05800
H2230       H  0.79347573  0.32826825  0.23018240     0.09000
H2231       H  0.81927311  0.33112185  0.25602577     0.09000
H2232       H  0.70755402  0.39718492  0.31078140     0.09000
H2233       H  0.73517504  0.40689002  0.33298932     0.09000
H2234       H  0.71969433  0.37444679  0.33668806     0.05800
C2235       C  0.76141136  0.63224134  0.25096105    -0.20000
C2236       C  0.73774421  0.64644025  0.24510278    -0.06600
C2237       C  0.71305364  0.63309912  0.24323223     0.14300
C2238       C  0.71252580  0.60523343  0.24788802    -0.20100
C2239       C  0.73601810  0.59106823  0.25506740    -0.06600
C2240       C  0.76088071  0.60449253  0.25628723     0.14300
C2241       C  0.78684920  0.58981696  0.26276052    -0.23400
H2242       H  0.78011714  0.64316647  0.25261376     0.15500
H2243       H  0.69366485  0.59455315  0.24653836     0.15600
C2244       C  0.68745754  0.64824701  0.23644787    -0.23400
H2245       H  0.80436337  0.60350764  0.26117236     0.05800
H2246       H  0.79011253  0.57287162  0.24804292     0.09000
H2247       H  0.78627200  0.58175989  0.28413610     0.09000
H2248       H  0.68971303  0.65872689  0.21627968     0.09000
H2249       H  0.68287281  0.66350763  0.25263177     0.09000
H2250       H  0.67009638  0.63436619  0.23512481     0.05800
C2251       C  0.48267756  0.30275603  0.41849489    -0.20000
C2252       C  0.50597219  0.29088425  0.40678349    -0.06600
C2253       C  0.53003564  0.29317886  0.42204640     0.14300
C2254       C  0.52962793  0.30506653  0.44860587    -0.20100
C2255       C  0.50574250  0.31285369  0.46234333    -0.06600
C2256       C  0.48255942  0.31475896  0.44518458     0.14300
C2257       C  0.45790531  0.33096871  0.45327916    -0.23400
H2258       H  0.46461331  0.30385087  0.40620978     0.15500
H2259       H  0.54850963  0.30985417  0.45780383     0.15600
C2260       C  0.55644461  0.28267466  0.41078546    -0.23400
H2261       H  0.45500398  0.34782169  0.43829470     0.05800
H2262       H  0.45938955  0.34015871  0.47396341     0.09000
H2263       H  0.43986111  0.31797950  0.45275212     0.09000
H2264       H  0.56267477  0.29474070  0.39254228     0.09000
H2265       H  0.55452632  0.26098836  0.40497877     0.09000
H2266       H  0.57270407  0.28403396  0.42624965     0.05800
C2267       C  0.47244286  0.41886687  0.32063243    -0.20000
C2268       C  0.49612431  0.43411812  0.32404968    -0.06600
C2269       C  0.52019089  0.41837125  0.32601589     0.14300
C2270       C  0.52072439  0.39083112  0.31743707    -0.20100
C2271       C  0.49743501  0.37712869  0.30896724    -0.06600
C2272       C  0.47272604  0.39127203  0.31217640     0.14300
C2273       C  0.44646004  0.37707774  0.30797745    -0.23400
H2274       H  0.45332794  0.42835271  0.32520998     0.15500
H2275       H  0.53961865  0.37972913  0.31811479     0.15600
C2276       C  0.54517062  0.42903916  0.33917305    -0.23400
H2277       H  0.42902556  0.39062670  0.31245467     0.05800
H2278       H  0.44517607  0.35919538  0.32191625     0.09000
H2279       H  0.44487367  0.37033925  0.28626099     0.09000
H2280       H  0.54235572  0.44990430  0.34704550     0.09000
H2281       H  0.56221137  0.42842352  0.32433695     0.09000
H2282       H  0.55044740  0.41601755  0.35710547     0.05800
C2283       C  0.38697036  0.28280929  0.28884770    -0.20000
C2284       C  0.40450531  0.26060806  0.29114096    -0.06600
C2285       C  0.39609262  0.23428607  0.28411197     0.14300
C2286       C  0.37022338  0.23095398  0.27400233    -0.20100
C2287       C  0.35281879  0.25329792  0.27081602    -0.06600
C2288       C  0.36095909  0.27949231  0.27907797     0.14300
C2289       C  0.34233244  0.30387833  0.27845497    -0.23400
H2290       H  0.39388277  0.30287981  0.29432254     0.15500
H2291       H  0.36370114  0.21086868  0.26810380     0.15600
C2292       C  0.41468591  0.20994216  0.28597712    -0.23400
H2293       H  0.35172622  0.32208219  0.28758482     0.05800
H2294       H  0.32383212  0.29952916  0.29050347     0.09000
H2295       H  0.33705293  0.30906692  0.25688494     0.09000
H2296       H  0.42078911  0.20662276  0.30769288     0.09000
H2297       H  0.43281378  0.21327378  0.27301235     0.09000
H2298       H  0.40492093  0.19111145  0.27875509     0.05800
C2299       C  0.60737886  0.26781553  0.25142850    -0.20000
C2300       C  0.59981689  0.27389199  0.27870161    -0.06600
C2301       C  0.61933256  0.28237683  0.29777494     0.14300
C2302       C  0.64620760  0.28191914  0.28972003    -0.20100
C2303       C  0.65381923  0.27347884  0.26330039    -0.06600
C2304       C  0.63435906  0.26763587  0.24342539     0.14300
C2305       C  0.64210611  0.25969081  0.21446081    -0.23400
H2306       H  0.59220884  0.26236063  0.23658601     0.15500
H2307       H  0.66160420  0.28645102  0.30466643     0.15600
C2308       C  0.61246461  0.29023747  0.32705073    -0.23400
H2309       H  0.62421503  0.25555772  0.20167310     0.05800
H2310       H  0.65486313  0.24106402  0.21480392     0.09000
H2311       H  0.65341624  0.27644780  0.20456116     0.09000
H2312       H  0.60173250  0.27341077  0.33750631     0.09000
H2313       H  0.59977738  0.30890507  0.32717919     0.09000
H2314       H  0.63068441  0.29464583  0.33923631     0.05800
C2315       C  0.50562348  0.14444783  0.28280345    -0.20000
C2316       C  0.49927287  0.15893246  0.30721019    -0.06600
C2317       C  0.49154538  0.14292199  0.33048505     0.14300
C2318       C  0.49086810  0.11392492  0.32871564    -0.20100
C2319       C  0.49742917  0.09971867  0.30427633    -0.06600
C2320       C  0.50456678  0.11566438  0.28096835     0.14300
C2321       C  0.51079967  0.10300813  0.25340918    -0.23400
H2322       H  0.51116428  0.15573250  0.26445481     0.15500
H2323       H  0.48519278  0.10216872  0.34670616     0.15600
C2324       C  0.48426145  0.15606899  0.35751418    -0.23400
H2325       H  0.53161940  0.10806548  0.24712118     0.05800
H2326       H  0.49668546  0.11122755  0.23777518     0.09000
H2327       H  0.50895071  0.08060744  0.25348894     0.09000
H2328       H  0.46622040  0.16923001  0.35494432     0.09000
H2329       H  0.50129849  0.16837061  0.36488122     0.09000
H2330       H  0.47957455  0.14076563  0.37366498     0.05800
C2331       C  0.52135976  0.31110880  0.62948400    -0.20000
C2332       C  0.49748999  0.30047819  0.64085616    -0.06600
C2333       C  0.47362017  0.30569702  0.62584585     0.14300
C2334       C  0.47485577  0.31734035  0.59896010    -0.20100
C2335       C  0.49936546  0.32252504  0.58516054    -0.06600
C2336       C  0.52210447  0.32355529  0.60285182     0.14300
C2337       C  0.54637471  0.34009733  0.59539993    -0.23400
H2338       H  0.53939066  0.31066120  0.64183710     0.15500
H2339       H  0.45633606  0.32230527  0.58857850     0.15600
C2340       C  0.44668956  0.29830346  0.63778143    -0.23400
H2341       H  0.54813400  0.35703343  0.61030227     0.05800
H2342       H  0.54483334  0.34914870  0.57450496     0.09000
H2343       H  0.56496884  0.32759408  0.59670165     0.09000
H2344       H  0.44282266  0.31001211  0.65692717     0.09000
H2345       H  0.44632982  0.27624038  0.64256796     0.09000
H2346       H  0.43014192  0.30286448  0.62320136     0.05800
C2347       C  0.53143853  0.36808475  0.74119849    -0.20000
C2348       C  0.51036824  0.36025730  0.75858357    -0.06600
C2349       C  0.49238448  0.37996832  0.76903393     0.14300
C2350       C  0.49467579  0.40691168  0.75999140    -0.20100
C2351       C  0.51392565  0.41429627  0.74008493    -0.06600
C2352       C  0.53330402  0.39473934  0.73134920     0.14300
C2353       C  0.55460126  0.40070865  0.70999743    -0.23400
H2354       H  0.54517288  0.35266362  0.73334364     0.15500
H2355       H  0.48027718  0.42202697  0.76709830     0.15600
C2356       C  0.47058188  0.37251331  0.78923515    -0.23400
H2357       H  0.56563282  0.38202871  0.70356110     0.05800
H2358       H  0.56975527  0.41453436  0.71863173     0.09000
H2359       H  0.54538218  0.40963797  0.69123161     0.09000
H2360       H  0.47965872  0.36287382  0.80772567     0.09000
H2361       H  0.45642659  0.35816242  0.77967448     0.09000
H2362       H  0.45889001  0.39065197  0.79603612     0.05800
C2363       C  0.61328904  0.25575005  0.71295565    -0.20000
C2364       C  0.59917260  0.24399113  0.73495783    -0.06600
C2365       C  0.61238329  0.22647346  0.75353716     0.14300
C2366       C  0.64004984  0.22275689  0.75095113    -0.20100
C2367       C  0.65464282  0.23644843  0.73048406    -0.06600
C2368       C  0.64114869  0.25248788  0.71068638     0.14300
C2369       C  0.65615850  0.26771935  0.68853844    -0.23400
H2370       H  0.60267882  0.26868153  0.69843699     0.15500
H2371       H  0.65063928  0.21043622  0.76602523     0.15600
C2372       C  0.59738746  0.21169905  0.77598915    -0.23400
H2373       H  0.64236858  0.27970799  0.67520484     0.05800
H2374       H  0.66736461  0.25314160  0.67525267     0.09000
H2375       H  0.67045430  0.28200933  0.69804842     0.09000
H2376       H  0.58155539  0.19917022  0.76661724     0.09000
H2377       H  0.58806521  0.22643344  0.79051665     0.09000
H2378       H  0.61081736  0.19802109  0.78799903     0.05800
C2379       C  0.38964592  0.25813164  0.71348473    -0.20000
C2380       C  0.40233914  0.24398980  0.73504461    -0.06600
C2381       C  0.38810028  0.22342646  0.74929020     0.14300
C2382       C  0.36119616  0.21924381  0.74290806    -0.20100
C2383       C  0.34768291  0.23543218  0.72340619    -0.06600
C2384       C  0.36253110  0.25434137  0.70751238     0.14300
C2385       C  0.35026338  0.27122007  0.68471363    -0.23400
H2386       H  0.40081195  0.27295398  0.70162604     0.15500
H2387       H  0.35024144  0.20418276  0.75464735     0.15600
C2388       C  0.40029139  0.20642708  0.77207363    -0.23400
H2389       H  0.36563158  0.28298482  0.67322693     0.05800
H2390       H  0.33569793  0.28618031  0.69335342     0.09000
H2391       H  0.34022206  0.25780816  0.66970566     0.09000
H2392       H  0.40753716  0.21976810  0.78878923     0.09000
H2393       H  0.41706763  0.19380795  0.76379092     0.09000
H2394       H  0.38556385  0.19228613  0.78143341     0.05800
C2395       C  0.49684851  0.14206821  0.70967191    -0.20000
C2396       C  0.50671137  0.15626284  0.73248427    -0.06600
C2397       C  0.51738180  0.14119344  0.75499704     0.14300
C2398       C  0.51641547  0.11272356  0.75478651    -0.20100
C2399       C  0.50545285  0.09862359  0.73261924    -0.06600
C2400       C  0.49615936  0.11341231  0.70946534     0.14300
C2401       C  0.48578142  0.09894517  0.68450177    -0.23400
H2402       H  0.48894823  0.15342306  0.69230548     0.15500
H2403       H  0.52427750  0.10124614  0.77210899     0.15600
C2404       C  0.53064293  0.15481707  0.77905800    -0.23400
H2405       H  0.47991531  0.11344561  0.66796998     0.05800
H2406       H  0.46788192  0.08687330  0.69010775     0.09000
H2407       H  0.50162194  0.08516289  0.67616434     0.09000
H2408       H  0.51574241  0.16667894  0.79124173     0.09000
H2409       H  0.54665481  0.16837588  0.77138398     0.09000
H2410       H  0.54004520  0.13981855  0.79327755     0.05800
C2411       C  0.32570591  0.50424567  0.56934420    -0.20000
C2412       C  0.30982169  0.49043369  0.55018560    -0.06600
C2413       C  0.28442372  0.48075463  0.56056618     0.14300
C2414       C  0.27825212  0.48147382  0.58914503    -0.20100
C2415       C  0.29384769  0.49572178  0.60800629    -0.06600
C2416       C  0.31769037  0.50812816  0.59727554     0.14300
C2417       C  0.33447603  0.52690454  0.61439009    -0.23400
H2418       H  0.34349805  0.51432950  0.56189215     0.15500
H2419       H  0.25956413  0.47278174  0.59634650     0.15600
C2420       C  0.26148081  0.47187454  0.54260000    -0.23400
H2421       H  0.35234040  0.53433357  0.60294031     0.05800
H2422       H  0.34175505  0.51634576  0.63307315     0.09000
H2423       H  0.32231857  0.54498961  0.62041516     0.09000
H2424       H  0.25849048  0.44967062  0.54490960     0.09000
H2425       H  0.26368486  0.47715190  0.52063536     0.09000
H2426       H  0.24273669  0.48246156  0.54925632     0.05800
C2427       C  0.42342546  0.48419926  0.67242584    -0.20000
C2428       C  0.44256908  0.49034241  0.69264751    -0.06600
C2429       C  0.43198722  0.49454723  0.72013799     0.14300
C2430       C  0.40387329  0.49466199  0.72536720    -0.20100
C2431       C  0.38499280  0.49057830  0.70457586    -0.06600
C2432       C  0.39530928  0.48427586  0.67785999     0.14300
C2433       C  0.37736933  0.47631300  0.65449483    -0.23400
H2434       H  0.43009453  0.47871272  0.65209567     0.15500
H2435       H  0.39657193  0.49880898  0.74605292     0.15600
C2436       C  0.44908139  0.49951544  0.74523677    -0.23400
H2437       H  0.38041053  0.49047589  0.63694316     0.05800
H2438       H  0.35582335  0.47620279  0.66023067     0.09000
H2439       H  0.38285872  0.45550069  0.64757281     0.09000
H2440       H  0.47086407  0.49988510  0.74138959     0.09000
H2441       H  0.44534969  0.48331168  0.76072834     0.09000
H2442       H  0.44342092  0.51939944  0.75446263     0.05800
C2443       C  0.25194132  0.39253561  0.74768196    -0.20000
C2444       C  0.27120297  0.40062743  0.72835092    -0.06600
C2445       C  0.28973547  0.38193190  0.71729727     0.14300
C2446       C  0.28819622  0.35488006  0.72547235    -0.20100
C2447       C  0.26829596  0.34627478  0.74413006    -0.06600
C2448       C  0.25006763  0.36535406  0.75569395     0.14300
C2449       C  0.22799567  0.35723898  0.77538791    -0.23400
H2450       H  0.23830329  0.40757428  0.75641305     0.15500
H2451       H  0.30210260  0.34018850  0.71658452     0.15600
C2452       C  0.31070186  0.39047915  0.69656537    -0.23400
H2453       H  0.21529216  0.37490537  0.78156132     0.05800
H2454       H  0.23680139  0.34841188  0.79440655     0.09000
H2455       H  0.21478666  0.34215781  0.76549136     0.09000
H2456       H  0.32402185  0.40585598  0.70580050     0.09000
H2457       H  0.30076348  0.39938571  0.67816766     0.09000
H2458       H  0.32336183  0.37303520  0.68969186     0.05800
C2459       C  0.27702932  0.64407951  0.70487428    -0.20000
C2460       C  0.28042833  0.65499388  0.73126892    -0.06600
C2461       C  0.28402353  0.63759679  0.75423176     0.14300
C2462       C  0.28315847  0.60956456  0.75018078    -0.20100
C2463       C  0.27894771  0.59888139  0.72391845    -0.06600
C2464       C  0.27612312  0.61611017  0.70090918     0.14300
C2465       C  0.27067847  0.60515253  0.67252110    -0.23400
H2466       H  0.27412004  0.65756550  0.68740548     0.15500
H2467       H  0.28546021  0.59587152  0.76758490     0.15600
C2468       C  0.28737426  0.64824400  0.78310520    -0.23400
H2469       H  0.26767241  0.62171851  0.65721783     0.05800
H2470       H  0.25222466  0.59271323  0.67301870     0.09000
H2471       H  0.28787295  0.59245896  0.66536739     0.09000
H2472       H  0.26985015  0.66119553  0.78887832     0.09000
H2473       H  0.30605214  0.66023206  0.78436735     0.09000
H2474       H  0.28888382  0.63152800  0.79847061     0.05800
C2475       C  0.52497352  0.68971706  0.58973956    -0.20000
C2476       C  0.50194778  0.67885510  0.57713793    -0.06600
C2477       C  0.48067119  0.67302564  0.59602662     0.14300
C2478       C  0.48002528  0.68494713  0.62284324    -0.20100
C2479       C  0.50089609  0.70150316  0.63284464    -0.06600
C2480       C  0.52454631  0.70200988  0.61632782     0.14300
C2481       C  0.54992762  0.71443833  0.62691125    -0.23400
H2482       H  0.54398312  0.68717513  0.57953589     0.15500
H2483       H  0.46274365  0.68130482  0.63596673     0.15600
C2484       C  0.45895297  0.65320368  0.58930097    -0.23400
H2485       H  0.56688635  0.71179845  0.61214947     0.05800
H2486       H  0.55569673  0.70463667  0.64667961     0.09000
H2487       H  0.54688755  0.73656569  0.63005012     0.09000
H2488       H  0.46003559  0.64583907  0.56781956     0.09000
H2489       H  0.43907403  0.66270825  0.59290881     0.09000
H2490       H  0.46073393  0.63533627  0.60322013     0.05800
C2491       C  0.46861119  0.63435963  0.71462686    -0.20000
C2492       C  0.47999122  0.64105684  0.74010838    -0.06600
C2493       C  0.49342961  0.62085776  0.75567974     0.14300
C2494       C  0.49673196  0.59490692  0.74440287    -0.20100
C2495       C  0.48681691  0.58893375  0.71824199    -0.06600
C2496       C  0.47206152  0.60853162  0.70338960     0.14300
C2497       C  0.46136946  0.60272043  0.67504898    -0.23400
H2498       H  0.45847662  0.64988602  0.70253789     0.15500
H2499       H  0.50734194  0.57919681  0.75577771     0.15600
C2500       C  0.50394795  0.62635151  0.78414231    -0.23400
H2501       H  0.45179410  0.62098642  0.66566438     0.05800
H2502       H  0.44599892  0.58664454  0.67615679     0.09000
H2503       H  0.47803456  0.59601332  0.66127996     0.09000
H2504       H  0.48751172  0.63456658  0.79736276     0.09000
H2505       H  0.52064059  0.64102282  0.78323272     0.09000
H2506       H  0.51180896  0.60753262  0.79403322     0.05800
C2507       C  0.38663794  0.75889578  0.70006702    -0.20000
C2508       C  0.40122519  0.77323989  0.71991060    -0.06600
C2509       C  0.38900344  0.79601851  0.73304062     0.14300
C2510       C  0.36139309  0.80030198  0.72984885    -0.20100
C2511       C  0.34627838  0.78217707  0.71445592    -0.06600
C2512       C  0.35909292  0.76288973  0.69749718     0.14300
C2513       C  0.34326102  0.74478911  0.67871977    -0.23400
H2514       H  0.39610274  0.74266240  0.68838199     0.15500
H2515       H  0.35112444  0.81546052  0.74233991     0.15600
C2516       C  0.40411530  0.81503298  0.75149217    -0.23400
H2517       H  0.35655767  0.73101970  0.66656606     0.05800
H2518       H  0.33152903  0.75749274  0.66408161     0.09000
H2519       H  0.32928904  0.73197711  0.69087071     0.09000
H2520       H  0.42193291  0.82301994  0.74037867     0.09000
H2521       H  0.41037470  0.80441473  0.77063349     0.09000
H2522       H  0.39149811  0.83271301  0.75781628     0.05800
C2523       C  0.60257065  0.76753103  0.74449750    -0.20000
C2524       C  0.59292101  0.74118062  0.74105665    -0.06600
C2525       C  0.61056403  0.71878487  0.74006329     0.14300
C2526       C  0.63797078  0.72336376  0.74240385    -0.20100
C2527       C  0.64785372  0.74975151  0.74591879    -0.06600
C2528       C  0.62997156  0.77217702  0.74722056     0.14300
C2529       C  0.63932173  0.80073144  0.75245673    -0.23400
H2530       H  0.58849086  0.78447212  0.74547948     0.15500
H2531       H  0.65178822  0.70623061  0.74123792     0.15600
C2532       C  0.60061715  0.69030953  0.73577403    -0.23400
H2533       H  0.62219075  0.81520351  0.75470195     0.05800
H2534       H  0.65182927  0.80791079  0.73494827     0.09000
H2535       H  0.65109146  0.80129986  0.77179297     0.09000
H2536       H  0.58920763  0.68931772  0.71623529     0.09000
H2537       H  0.58739818  0.68428988  0.75319715     0.09000
H2538       H  0.61742165  0.67534145  0.73455902     0.05800
C2539       C  0.50748885  0.85881514  0.70596942    -0.20000
C2540       C  0.50792481  0.84361544  0.73057622    -0.06600
C2541       C  0.51038497  0.85784094  0.75601219     0.14300
C2542       C  0.51077027  0.88631670  0.75607265    -0.20100
C2543       C  0.50936202  0.90136984  0.73167100    -0.06600
C2544       C  0.50824027  0.88746593  0.70620236     0.14300
C2545       C  0.50748979  0.90226280  0.67900733    -0.23400
H2546       H  0.50583960  0.84837758  0.68643620     0.15500
H2547       H  0.51201821  0.89710864  0.77545710     0.15600
C2548       C  0.51304374  0.84353450  0.78347769    -0.23400
H2549       H  0.52486819  0.89570267  0.66612409     0.05800
H2550       H  0.50839501  0.92462466  0.68131182     0.09000
H2551       H  0.48865788  0.89733306  0.66810153     0.09000
H2552       H  0.52957780  0.82825288  0.78251826     0.09000
H2553       H  0.49389565  0.83366710  0.78924231     0.09000
H2554       H  0.51776223  0.85787583  0.80034284     0.05800
C2555       C  0.51280684  0.23364460  0.14415848    -0.20000
C2556       C  0.49800295  0.25091420  0.12664903    -0.06600
C2557       C  0.48358126  0.27265596  0.13947064     0.14300
C2558       C  0.48421575  0.27627220  0.16871471    -0.20100
C2559       C  0.49911527  0.25894333  0.18639281    -0.06600
C2560       C  0.51391063  0.23737831  0.17321217     0.14300
C2561       C  0.53170149  0.21811977  0.18923513    -0.23400
H2562       H  0.52393969  0.21697633  0.13484995     0.15500
H2563       H  0.47291605  0.29293173  0.17779878     0.15600
C2564       C  0.46802220  0.29274747  0.12221470    -0.23400
H2565       H  0.54260600  0.20361883  0.17557916     0.05800
H2566       H  0.51945290  0.20587380  0.20374939     0.09000
H2567       H  0.54703543  0.22972774  0.20061588     0.09000
H2568       H  0.45154922  0.28242679  0.11132823     0.09000
H2569       H  0.48160696  0.30229003  0.10684607     0.09000
H2570       H  0.45889792  0.30913241  0.13498860     0.05800
C2571       C  0.51285754  0.26593782  0.87403797    -0.20000
C2572       C  0.49903116  0.24724567  0.85741423    -0.06600
C2573       C  0.48436007  0.22664747  0.87165403     0.14300
C2574       C  0.48447732  0.22517801  0.90099361    -0.20100
C2575       C  0.49818019  0.24397338  0.91748046    -0.06600
C2576       C  0.51228863  0.26489688  0.90335776     0.14300
C2577       C  0.52653769  0.28710746  0.91849968    -0.23400
H2578       H  0.52398737  0.28206478  0.86409090     0.15500
H2579       H  0.47368077  0.20901828  0.91126869     0.15600
C2580       C  0.46859779  0.20566793  0.85630616    -0.23400
H2581       H  0.51849187  0.30716308  0.91177267     0.05800
H2582       H  0.54832895  0.28608089  0.91364155     0.09000
H2583       H  0.52392532  0.28591218  0.94114360     0.09000
H2584       H  0.48211325  0.19405301  0.84226554     0.09000
H2585       H  0.45236143  0.21572809  0.84435163     0.09000
H2586       H  0.45896229  0.19089689  0.87050446     0.05800
C2587       C  0.26003098  0.19602152  0.88219329    -0.20000
C2588       C  0.27168922  0.21585628  0.89891439    -0.06600
C2589       C  0.28831188  0.23588479  0.88646816     0.14300
C2590       C  0.28925899  0.23774272  0.85774561    -0.20100
C2591       C  0.27459980  0.22006985  0.84135554    -0.06600
C2592       C  0.26120576  0.19791896  0.85348250     0.14300
C2593       C  0.24629215  0.17752380  0.83645195    -0.23400
H2594       H  0.24835946  0.17993730  0.89151815     0.15500
H2595       H  0.30012728  0.25418763  0.84798039     0.15600
C2596       C  0.30412282  0.25633596  0.90266281    -0.23400
H2597       H  0.23635734  0.16197011  0.84950768     0.05800
H2598       H  0.26052921  0.16679706  0.82243759     0.09000
H2599       H  0.23052742  0.18796675  0.82415342     0.09000
H2600       H  0.31772719  0.24562710  0.91722610     0.09000
H2601       H  0.29035600  0.27029956  0.91398122     0.09000
H2602       H  0.31684311  0.26914010  0.88907017     0.05800
C2603       C  0.22884004  0.26366724  0.10855358    -0.20000
C2604       C  0.24906542  0.24908605  0.09468740    -0.06600
C2605       C  0.27509161  0.24712334  0.10612122     0.14300
C2606       C  0.27918126  0.25686191  0.13276586    -0.20100
C2607       C  0.25781695  0.26791748  0.14794410    -0.06600
C2608       C  0.23290432  0.27305305  0.13523679     0.14300
C2609       C  0.21015848  0.28699184  0.15049126    -0.23400
H2610       H  0.20937081  0.26648051  0.09905611     0.15500
H2611       H  0.29824791  0.25310187  0.14280756     0.15600
C2612       C  0.29851730  0.23470272  0.09061711    -0.23400
H2613       H  0.19233652  0.28997843  0.13715125     0.05800
H2614       H  0.21675368  0.30724536  0.15758386     0.09000
H2615       H  0.20380603  0.27477424  0.16859618     0.09000
H2616       H  0.30117914  0.24526194  0.07054307     0.09000
H2617       H  0.29511818  0.21276511  0.08710218     0.09000
H2618       H  0.31754040  0.23650904  0.10223190     0.05800
C2619       C  0.39110027  0.20015951  0.01517378    -0.20000
C2620       C  0.40111203  0.22548318  0.02351910    -0.06600
C2621       C  0.38266343  0.24626361  0.03076859     0.14300
C2622       C  0.35494619  0.24159433  0.02880546    -0.20100
C2623       C  0.34475526  0.21664927  0.01962575    -0.06600
C2624       C  0.36316731  0.19549462  0.01316434     0.14300
C2625       C  0.35350058  0.16856513  0.00284872    -0.23400
H2626       H  0.40524016  0.18421694  0.00953536     0.15500
H2627       H  0.34101239  0.25798039  0.03367914     0.15600
C2628       C  0.39221947  0.27382782  0.03953843    -0.23400
H2629       H  0.37047892  0.15450655  0.99809452     0.05800
H2630       H  0.34169001  0.17160538  0.98374393     0.09000
H2631       H  0.34070319  0.15884321  0.01879722     0.09000
H2632       H  0.40478964  0.28283831  0.02296303     0.09000
H2633       H  0.40422644  0.27196319  0.05862758     0.09000
H2634       H  0.37520390  0.28799639  0.04378437     0.05800
C2635       C  0.22968257  0.49532564  0.10716449    -0.20000
C2636       C  0.25422745  0.49446813  0.09270256    -0.06600
C2637       C  0.27803542  0.49107477  0.10836170     0.14300
C2638       C  0.27666437  0.48871758  0.13754434    -0.20100
C2639       C  0.25211104  0.49013369  0.15217640    -0.06600
C2640       C  0.22827237  0.49335794  0.13634068     0.14300
C2641       C  0.20096282  0.49387376  0.14989385    -0.23400
H2642       H  0.21135625  0.49746904  0.09542811     0.15500
H2643       H  0.29513775  0.48636760  0.14900759     0.15600
C2644       C  0.30534821  0.49005109  0.09490094    -0.23400
H2645       H  0.18459062  0.49445413  0.13448407     0.05800
H2646       H  0.19864999  0.51223892  0.16290173     0.09000
H2647       H  0.19835058  0.47535163  0.16271742     0.09000
H2648       H  0.31785302  0.50663968  0.10315278     0.09000
H2649       H  0.30455306  0.49245948  0.07220182     0.09000
H2650       H  0.31521245  0.47024984  0.09955160     0.05800
C2651       C  0.29146447  0.50030946  0.87479562    -0.20000
C2652       C  0.26564545  0.49993643  0.88679697    -0.06600
C2653       C  0.24335851  0.49891374  0.86894208     0.14300
C2654       C  0.24726912  0.49867371  0.83998811    -0.20100
C2655       C  0.27308026  0.49892163  0.82773786    -0.06600
C2656       C  0.29547953  0.49970314  0.84575164     0.14300
C2657       C  0.32372220  0.50063233  0.83460595    -0.23400
H2658       H  0.30865593  0.50094670  0.88831289     0.15500
H2659       H  0.22985617  0.49794537  0.82677458     0.15600
C2660       C  0.21529006  0.49791930  0.88054488    -0.23400
H2661       H  0.33866554  0.50247615  0.85135054     0.05800
H2662       H  0.32595303  0.51842738  0.82068867     0.09000
H2663       H  0.32844095  0.48168386  0.82315973     0.09000
H2664       H  0.21125956  0.51625491  0.89323038     0.09000
H2665       H  0.21301570  0.47952064  0.89360993     0.09000
H2666       H  0.20001499  0.49719635  0.86401648     0.05800
C2667       C  0.27559364  0.37847452  0.98210079    -0.20000
C2668       C  0.25261513  0.39467831  0.98719369    -0.06600
C2669       C  0.22809973  0.38093756  0.99178115     0.14300
C2670       C  0.22732209  0.35202443  0.99218219    -0.20100
C2671       C  0.25037788  0.33554098  0.98759626    -0.06600
C2672       C  0.27484828  0.34951425  0.98198086     0.14300
C2673       C  0.30060988  0.33426480  0.97607789    -0.23400
H2674       H  0.29443062  0.38864989  0.97827674     0.15500
H2675       H  0.20831984  0.34223623  0.99615704     0.15600
C2676       C  0.20246152  0.39690695  0.99593160    -0.23400
H2677       H  0.31761311  0.34821540  0.97227516     0.05800
H2678       H  0.29831535  0.32163896  0.95734665     0.09000
H2679       H  0.30595850  0.32120481  0.99395089     0.09000
H2680       H  0.19880099  0.41010889  0.97770971     0.09000
H2681       H  0.20391777  0.40975246  0.01458336     0.09000
H2682       H  0.18491498  0.38341666  0.99859580     0.05800
C2683       C  0.26753915  0.78328304  0.10721913    -0.20000
C2684       C  0.24223781  0.78107405  0.09500771    -0.06600
C2685       C  0.21875174  0.78014588  0.11117123     0.14300
C2686       C  0.22134151  0.77917994  0.13962079    -0.20100
C2687       C  0.24676935  0.77863021  0.15176155    -0.06600
C2688       C  0.27014012  0.78172133  0.13576373     0.14300
C2689       C  0.29762981  0.78144292  0.14850512    -0.23400
H2690       H  0.28535262  0.78451463  0.09432364     0.15500
H2691       H  0.20353717  0.77721051  0.15244944     0.15600
C2692       C  0.19114862  0.77994480  0.09858494    -0.23400
H2693       H  0.31370645  0.78342827  0.13267682     0.05800
H2694       H  0.30098531  0.76204779  0.15978031     0.09000
H2695       H  0.29935268  0.79865754  0.16306993     0.09000
H2696       H  0.18850284  0.76129908  0.08617939     0.09000
H2697       H  0.18843603  0.79808906  0.08519504     0.09000
H2698       H  0.17510326  0.78035337  0.11459596     0.05800
C2699       C  0.28571747  0.76691005  0.88580399    -0.20000
C2700       C  0.25911242  0.77142671  0.89458817    -0.06600
C2701       C  0.23766889  0.76702194  0.87648000     0.14300
C2702       C  0.24333768  0.75655024  0.85056396    -0.20100
C2703       C  0.26977684  0.75036635  0.84223092    -0.06600
C2704       C  0.29139567  0.75643132  0.85965400     0.14300
C2705       C  0.32014912  0.75072359  0.85153251    -0.23400
H2706       H  0.30200960  0.77027591  0.90004965     0.15500
H2707       H  0.22673303  0.75277066  0.83683404     0.15600
C2708       C  0.20867419  0.77144960  0.88477673    -0.23400
H2709       H  0.33418740  0.75532156  0.86852979     0.05800
H2710       H  0.32585918  0.76355794  0.83363738     0.09000
H2711       H  0.32270762  0.72894045  0.84616041     0.09000
H2712       H  0.20516973  0.79313710  0.88999282     0.09000
H2713       H  0.20362549  0.75846369  0.90279711     0.09000
H2714       H  0.19468066  0.76623290  0.86792709     0.05800
C2715       C  0.22666952  0.64473747  0.99708570    -0.20000
C2716       C  0.25014835  0.66046149  0.99421250    -0.06600
C2717       C  0.27462843  0.64571034  0.98969458     0.14300
C2718       C  0.27498653  0.61671248  0.98881427    -0.20100
C2719       C  0.25155080  0.60112652  0.99169610    -0.06600
C2720       C  0.22701481  0.61574443  0.99537144     0.14300
C2721       C  0.20091769  0.60070273  0.99680926    -0.23400
H2722       H  0.20766964  0.65524987  0.00010322     0.15500
H2723       H  0.29388874  0.60601999  0.98577604     0.15600
C2724       C  0.30085526  0.66031943  0.98641864    -0.23400
H2725       H  0.18349085  0.61479807  0.99904311     0.05800
H2726       H  0.20089605  0.58663971  0.01471332     0.09000
H2727       H  0.19826762  0.58883932  0.97761585     0.09000
H2728       H  0.30434871  0.67334718  0.00464781     0.09000
H2729       H  0.30051521  0.67298215  0.96746395     0.09000
H2730       H  0.31808299  0.64592587  0.98452078     0.05800
C2731       C  0.49813794  0.75771376  0.16745835    -0.20000
C2732       C  0.50217709  0.73100095  0.17784437    -0.06600
C2733       C  0.50651275  0.71035918  0.15770876     0.14300
C2734       C  0.50616892  0.71679390  0.12888838    -0.20100
C2735       C  0.50178646  0.74347015  0.11878728    -0.06600
C2736       C  0.49819812  0.76416232  0.13884621     0.14300
C2737       C  0.49461130  0.79357815  0.13087772    -0.23400
H2738       H  0.49505803  0.77419744  0.18191702     0.15500
H2739       H  0.50926761  0.70070287  0.11399461     0.15600
C2740       C  0.51106518  0.68130796  0.16628982    -0.23400
H2741       H  0.51069939  0.80575213  0.14038774     0.05800
H2742       H  0.47484877  0.80113131  0.13850613     0.09000
H2743       H  0.49555300  0.79697467  0.10831156     0.09000
H2744       H  0.49361110  0.67409348  0.17850989     0.09000
H2745       H  0.52955773  0.67964971  0.17882464     0.09000
H2746       H  0.51358348  0.66771845  0.14821250     0.05800
C2747       C  0.49490038  0.77595654  0.89319948    -0.20000
C2748       C  0.49984085  0.75296763  0.90984019    -0.06600
C2749       C  0.50298335  0.72760194  0.89620349     0.14300
C2750       C  0.50118393  0.72596645  0.86698593    -0.20100
C2751       C  0.49587599  0.74891389  0.85020057    -0.06600
C2752       C  0.49295193  0.77436414  0.86397571     0.14300
C2753       C  0.48855691  0.80033249  0.84805696    -0.23400
H2754       H  0.49241549  0.79544555  0.90325319     0.15500
H2755       H  0.50371067  0.70630775  0.85726821     0.15600
C2756       C  0.50805043  0.70163894  0.91191667    -0.23400
H2757       H  0.48814077  0.81836012  0.86174935     0.05800
H2758       H  0.46903333  0.79976528  0.83723746     0.09000
H2759       H  0.50511152  0.80308341  0.83290501     0.09000
H2760       H  0.50920822  0.70475444  0.93448359     0.09000
H2761       H  0.49158146  0.68720089  0.90790731     0.09000
H2762       H  0.52732443  0.69236617  0.90492877     0.05800
C2763       C  0.39182161  0.79336960  0.01275807    -0.20000
C2764       C  0.40255849  0.76692293  0.01531057    -0.06600
C2765       C  0.38484164  0.74480317  0.01561368     0.14300
C2766       C  0.35709511  0.74947592  0.01264460    -0.20100
C2767       C  0.34608180  0.77585552  0.00927234    -0.06600
C2768       C  0.36387831  0.79814553  0.00989074     0.14300
C2769       C  0.35380164  0.82688156  0.00655416    -0.23400
H2770       H  0.40548721  0.81033490  0.01241001     0.15500
H2771       H  0.34389258  0.73213472  0.01261801     0.15600
C2772       C  0.39535376  0.71611417  0.01842693    -0.23400
H2773       H  0.37048020  0.84165660  0.00662117     0.05800
H2774       H  0.34002948  0.83215441  0.02384330     0.09000
H2775       H  0.34307721  0.82906972  0.98667833     0.09000
H2776       H  0.40633351  0.71385373  0.03814239     0.09000
H2777       H  0.40919119  0.71129992  0.00105132     0.09000
H2778       H  0.37890445  0.70108179  0.01829547     0.05800
C2779       C  0.75920370  0.79224704  0.12174309    -0.20000
C2780       C  0.74827465  0.77471783  0.10237995    -0.06600
C2781       C  0.72789735  0.75647159  0.10994799     0.14300
C2782       C  0.71978901  0.75513968  0.13744493    -0.20100
C2783       C  0.73160982  0.77167093  0.15726445    -0.06600
C2784       C  0.75137035  0.79069053  0.14941595     0.14300
C2785       C  0.76547289  0.80805651  0.17024075    -0.23400
H2786       H  0.77434776  0.80662020  0.11527913     0.15500
H2787       H  0.70496550  0.74035716  0.14375886     0.15600
C2788       C  0.71475479  0.73842362  0.08902568    -0.23400
H2789       H  0.78088282  0.82110722  0.16040488     0.05800
H2790       H  0.77573154  0.79494990  0.18567634     0.09000
H2791       H  0.75070611  0.82154336  0.18080601     0.09000
H2792       H  0.73003200  0.72485223  0.07935134     0.09000
H2793       H  0.70510004  0.75107117  0.07281054     0.09000
H2794       H  0.69907545  0.72549947  0.09857693     0.05800
C2795       C  0.72776483  0.76419252  0.89044424    -0.20000
C2796       C  0.75271550  0.76485767  0.90332426    -0.06600
C2797       C  0.77570515  0.75339433  0.89078360     0.14300
C2798       C  0.77337435  0.74256535  0.86457072    -0.20100
C2799       C  0.74877164  0.74344837  0.85080890    -0.06600
C2800       C  0.72547650  0.75378863  0.86396894     0.14300
C2801       C  0.69862218  0.75527216  0.84985341    -0.23400
H2802       H  0.71014391  0.77205083  0.90112443     0.15500
H2803       H  0.79110923  0.73466740  0.85411345     0.15600
C2804       C  0.80248047  0.75207619  0.90514356    -0.23400
H2805       H  0.68285914  0.76432935  0.86338594     0.05800
H2806       H  0.69214586  0.73452894  0.84423592     0.09000
H2807       H  0.70004693  0.76805706  0.83101311     0.09000
H2808       H  0.80056722  0.74055442  0.92476317     0.09000
H2809       H  0.80949440  0.77291691  0.90957368     0.09000
H2810       H  0.81806933  0.74180129  0.89230751     0.05800
C2811       C  0.63762160  0.80090776  0.01491865    -0.20000
C2812       C  0.65492677  0.77848447  0.01040273    -0.06600
C2813       C  0.64299094  0.75215612  0.00841663     0.14300
C2814       C  0.61495846  0.74946290  0.00988771    -0.20100
C2815       C  0.59791967  0.77180006  0.01371351    -0.06600
C2816       C  0.60936313  0.79782304  0.01659993     0.14300
C2817       C  0.59162818  0.82228903  0.02133950    -0.23400
H2818       H  0.64614216  0.82095483  0.01680292     0.15500
H2819       H  0.60606081  0.72956511  0.00796450     0.15600
C2820       C  0.65919624  0.72616779  0.00528657    -0.23400
H2821       H  0.60349145  0.84114589  0.02321074     0.05800
H2822       H  0.57988384  0.81954361  0.04066119     0.09000
H2823       H  0.57759668  0.82483359  0.00382566     0.09000
H2824       H  0.67408193  0.72438616  0.02214019     0.09000
H2825       H  0.66937921  0.72565380  0.98487928     0.09000
H2826       H  0.64643365  0.70783384  0.00639091     0.05800
C2827       C  0.75067234  0.26982889  0.11259981    -0.20000
C2828       C  0.77072565  0.25286526  0.10112461    -0.06600
C2829       C  0.79153235  0.24273338  0.11816461     0.14300
C2830       C  0.78919429  0.24632368  0.14655840    -0.20100
C2831       C  0.76679799  0.25961757  0.15808709    -0.06600
C2832       C  0.74830769  0.27326236  0.14095225     0.14300
C2833       C  0.72499989  0.28981050  0.15213082    -0.23400
H2834       H  0.73554649  0.27910850  0.09957113     0.15500
H2835       H  0.80407570  0.23715072  0.16000200     0.15600
C2836       C  0.81584174  0.22763467  0.10717554    -0.23400
H2837       H  0.71258789  0.29875738  0.13540806     0.05800
H2838       H  0.73259568  0.30685432  0.16468794     0.09000
H2839       H  0.71172800  0.27678800  0.16489275     0.09000
H2840       H  0.82598742  0.24007316  0.09115149     0.09000
H2841       H  0.80991712  0.20777451  0.09852514     0.09000
H2842       H  0.83071275  0.22333307  0.12361735     0.05800
C2843       C  0.73798158  0.19067758  0.89105408    -0.20000
C2844       C  0.72865257  0.21213731  0.90733799    -0.06600
C2845       C  0.71457804  0.23407815  0.89543572     0.14300
C2846       C  0.71431417  0.23649766  0.86690171    -0.20100
C2847       C  0.72797523  0.21750716  0.85027985    -0.06600
C2848       C  0.73756727  0.19289108  0.86230274     0.14300
C2849       C  0.74805542  0.16927145  0.84550416    -0.23400
H2850       H  0.74772812  0.17335092  0.90074759     0.15500
H2851       H  0.70519373  0.25447160  0.85784536     0.15600
C2852       C  0.70082562  0.25552399  0.91285654    -0.23400
H2853       H  0.75180426  0.15106548  0.85857227     0.05800
H2854       H  0.76739444  0.17442314  0.83543987     0.09000
H2855       H  0.73304109  0.16365683  0.82976797     0.09000
H2856       H  0.71566442  0.26689294  0.92507559     0.09000
H2857       H  0.68624626  0.24573660  0.92705296     0.09000
H2858       H  0.68967803  0.27050671  0.90001846     0.05800
C2859       C  0.64122816  0.24893030  0.01504615    -0.20000
C2860       C  0.65356004  0.22309561  0.01792175    -0.06600
C2861       C  0.63666749  0.20042327  0.02237050     0.14300
C2862       C  0.60845597  0.20432397  0.02416335    -0.20100
C2863       C  0.59649258  0.23021160  0.02120778    -0.06600
C2864       C  0.61320950  0.25267122  0.01637442     0.14300
C2865       C  0.60139859  0.28069827  0.01230587    -0.23400
H2866       H  0.65359378  0.26652431  0.01119637     0.15500
H2867       H  0.59557850  0.18702598  0.02756525     0.15600
C2868       C  0.64809631  0.17218176  0.02563827    -0.23400
H2869       H  0.61716900  0.29607945  0.00861382     0.05800
H2870       H  0.58980359  0.28683109  0.03091861     0.09000
H2871       H  0.58786202  0.28078777  0.99423095     0.09000
H2872       H  0.66248811  0.17165660  0.04299890     0.09000
H2873       H  0.65844873  0.16587176  0.00633834     0.09000
H2874       H  0.63217807  0.15713342  0.03005311     0.05800
C2875       C  0.76159277  0.49528346  0.10675218    -0.20000
C2876       C  0.73748999  0.49402481  0.09192057    -0.06600
C2877       C  0.71340872  0.49004910  0.10706180     0.14300
C2878       C  0.71394346  0.48805840  0.13627696    -0.20100
C2879       C  0.73810094  0.48928759  0.15124288    -0.06600
C2880       C  0.76222735  0.49296314  0.13591450     0.14300
C2881       C  0.78869356  0.49584016  0.15027204    -0.23400
H2882       H  0.78010412  0.49834941  0.09537335     0.15500
H2883       H  0.69528235  0.48547689  0.14753447     0.15600
C2884       C  0.68703918  0.48808756  0.09231346    -0.23400
H2885       H  0.80533206  0.49971673  0.13547571     0.05800
H2886       H  0.79363889  0.47691414  0.16171930     0.09000
H2887       H  0.78753615  0.51320254  0.16477579     0.09000
H2888       H  0.68766401  0.47062139  0.07790325     0.09000
H2889       H  0.68318034  0.50705488  0.08047958     0.09000
H2890       H  0.67006587  0.48507384  0.10692476     0.05800
C2891       C  0.77181731  0.61709512  0.00011541    -0.20000
C2892       C  0.74625752  0.60521039  0.99765774    -0.06600
C2893       C  0.72381069  0.62322904  0.99851758     0.14300
C2894       C  0.72733310  0.65188168  0.00095029    -0.20100
C2895       C  0.75289147  0.66395824  0.00334370    -0.06600
C2896       C  0.77539723  0.64576760  0.00302396     0.14300
C2897       C  0.80349868  0.65646064  0.00491604    -0.23400
H2898       H  0.78925341  0.60376373  0.99973184     0.15500
H2899       H  0.70973846  0.66500777  0.00122655     0.15600
C2900       C  0.69586723  0.61210222  0.99704369    -0.23400
H2901       H  0.81875723  0.63991900  0.00331002     0.05800
H2902       H  0.80627320  0.66666213  0.02503408     0.09000
H2903       H  0.80722743  0.67112013  0.98790892     0.09000
H2904       H  0.69238002  0.59801374  0.01459133     0.09000
H2905       H  0.69335225  0.60093769  0.97741318     0.09000
H2906       H  0.68039872  0.62849035  0.99802849     0.05800
C2907       C  0.71981394  0.38363060  0.99206667    -0.20000
C2908       C  0.74133897  0.39910847  0.98177412    -0.06600
C2909       C  0.76422052  0.38435155  0.97206860     0.14300
C2910       C  0.76521460  0.35532717  0.97361063    -0.20100
C2911       C  0.74410411  0.33982245  0.98509404    -0.06600
C2912       C  0.72080590  0.35470964  0.99384031     0.14300
C2913       C  0.69639244  0.34031568  0.00473918    -0.23400
H2914       H  0.70209625  0.39441716  0.99937789     0.15500
H2915       H  0.78312023  0.34472298  0.96653168     0.15600
C2916       C  0.78817795  0.39927226  0.96090750    -0.23400
H2917       H  0.67945500  0.35465463  0.00872165     0.05800
H2918       H  0.70109955  0.33003657  0.02452323     0.09000
H2919       H  0.68956945  0.32518808  0.98945662     0.09000
H2920       H  0.79583980  0.41333112  0.97678706     0.09000
H2921       H  0.78250609  0.41108243  0.94230279     0.09000
H2922       H  0.80471349  0.38509747  0.95501030     0.05800
C2923       C  0.68522752  0.48357758  0.59926050    -0.20000
C2924       C  0.70893986  0.49685301  0.60755979    -0.06600
C2925       C  0.72276619  0.51164288  0.58693723     0.14300
C2926       C  0.71229781  0.51343058  0.55989506    -0.20100
C2927       C  0.68739863  0.50207736  0.55180119    -0.06600
C2928       C  0.67517049  0.48483546  0.57183715     0.14300
C2929       C  0.65339354  0.46516069  0.56490273    -0.23400
H2930       H  0.67476081  0.47102125  0.61413520     0.15500
H2931       H  0.72456959  0.52334238  0.54449409     0.15600
C2932       C  0.74922606  0.52494449  0.59273718    -0.23400
H2933       H  0.65879582  0.44471686  0.57303643     0.05800
H2934       H  0.65094095  0.46242530  0.54252217     0.09000
H2935       H  0.63418137  0.47177955  0.57459751     0.09000
H2936       H  0.76379196  0.50958619  0.60057878     0.09000
H2937       H  0.74637200  0.54136551  0.60811355     0.09000
H2938       H  0.75807506  0.53430080  0.57395078     0.05800
C2939       C  0.59946761  0.50947683  0.72082286    -0.20000
C2940       C  0.61818721  0.50130843  0.70071535    -0.06600
C2941       C  0.60777986  0.49506997  0.67415925     0.14300
C2942       C  0.57960861  0.49629437  0.66901924    -0.20100
C2943       C  0.56050270  0.50350041  0.68944207    -0.06600
C2944       C  0.57133488  0.50981828  0.71616069     0.14300
C2945       C  0.55445136  0.51558097  0.74154041    -0.23400
H2946       H  0.60679250  0.51430460  0.74119967     0.15500
H2947       H  0.57263781  0.49009545  0.64908956     0.15600
C2948       C  0.62628906  0.48739994  0.65067068    -0.23400
H2949       H  0.56040501  0.50133427  0.75827075     0.05800
H2950       H  0.53271744  0.51299510  0.73896008     0.09000
H2951       H  0.55804229  0.53665835  0.74858018     0.09000
H2952       H  0.63647937  0.46774755  0.65513243     0.09000
H2953       H  0.64147048  0.50347909  0.64751070     0.09000
H2954       H  0.61526483  0.48501095  0.63102771     0.05800
C2955       C  0.72857782  0.61446096  0.69835435    -0.20000
C2956       C  0.73182606  0.59668103  0.72062148    -0.06600
C2957       C  0.73919766  0.60643830  0.74674573     0.14300
C2958       C  0.74360246  0.63409631  0.74987531    -0.20100
C2959       C  0.74033567  0.65208504  0.72768819    -0.06600
C2960       C  0.73231557  0.64234686  0.70167350     0.14300
C2961       C  0.72645550  0.66118387  0.67784741    -0.23400
H2962       H  0.72259667  0.60652221  0.67853619     0.15500
H2963       H  0.74955050  0.64177026  0.76981969     0.15600
C2964       C  0.74300955  0.58773614  0.77118844    -0.23400
H2965       H  0.71873451  0.65002815  0.65975033     0.05800
H2966       H  0.74503016  0.67165647  0.67125431     0.09000
H2967       H  0.71099436  0.67643864  0.68405073     0.09000
H2968       H  0.75824791  0.57184832  0.76619247     0.09000
H2969       H  0.72373816  0.57795023  0.77669194     0.09000
H2970       H  0.74994769  0.59886253  0.78964688     0.05800
C2971       C  0.73377451  0.39432732  0.76721480    -0.20000
C2972       C  0.72709939  0.39899920  0.73939927    -0.06600
C2973       C  0.72125098  0.37673505  0.72221904     0.14300
C2974       C  0.72323718  0.35043337  0.73316459    -0.20100
C2975       C  0.73114991  0.34601457  0.76053061    -0.06600
C2976       C  0.73611451  0.36804574  0.77789041     0.14300
C2977       C  0.74381535  0.36379012  0.80756171    -0.23400
H2978       H  0.73762902  0.41135914  0.78066294     0.15500
H2979       H  0.71987714  0.33310089  0.71993225     0.15600
C2980       C  0.71425621  0.38027470  0.69222327    -0.23400
H2981       H  0.74637555  0.38337800  0.81846747     0.05800
H2982       H  0.76304615  0.35227791  0.80874830     0.09000
H2983       H  0.72788688  0.35220507  0.81837835     0.09000
H2984       H  0.73056055  0.39123154  0.68131241     0.09000
H2985       H  0.69509990  0.39179290  0.69026462     0.09000
H2986       H  0.71157140  0.36045673  0.68182220     0.05800
C2987       C  0.75229819  0.50369557  0.83970136    -0.20000
C2988       C  0.72714047  0.50814056  0.82695588    -0.06600
C2989       C  0.70503986  0.51445173  0.84475912     0.14300
C2990       C  0.70854217  0.51509052  0.87389984    -0.20100
C2991       C  0.73356902  0.50987005  0.88634093    -0.06600
C2992       C  0.75573325  0.50458698  0.86868746     0.14300
C2993       C  0.78323029  0.49977368  0.88052849    -0.23400
H2994       H  0.76967524  0.49930657  0.82687790     0.15500
H2995       H  0.69142030  0.51919009  0.88718655     0.15600
C2996       C  0.67746398  0.52001128  0.83346009    -0.23400
H2997       H  0.79855138  0.49627838  0.86415341     0.05800
H2998       H  0.78306585  0.48165187  0.89418649     0.09000
H2999       H  0.78926980  0.51777059  0.89263394     0.09000
H3000       H  0.67051167  0.50213334  0.82172208     0.09000
H3001       H  0.67791572  0.53815683  0.81983072     0.09000
H3002       H  0.66258168  0.52411011  0.85012072     0.05800
C3003       C  0.12089685  0.50916476  0.74398123    -0.20000
C3004       C  0.10477896  0.49713464  0.72369827    -0.06600
C3005       C  0.11892443  0.48556937  0.70083287     0.14300
C3006       C  0.14775023  0.48641203  0.69886825    -0.20100
C3007       C  0.16406433  0.49862667  0.71914311    -0.06600
C3008       C  0.14961927  0.51001720  0.74223235     0.14300
C3009       C  0.16409218  0.52308784  0.76582439    -0.23400
H3010       H  0.11078507  0.51802874  0.76168203     0.15500
H3011       H  0.15759201  0.47742924  0.68108639     0.15600
C3012       C  0.10344868  0.47271785  0.67789655    -0.23400
H3013       H  0.15001993  0.53031014  0.78213979     0.05800
H3014       H  0.17532807  0.54102134  0.75831695     0.09000
H3015       H  0.17800403  0.50815836  0.77551327     0.09000
H3016       H  0.08931543  0.48785750  0.66889312     0.09000
H3017       H  0.09194484  0.45520052  0.68595104     0.09000
H3018       H  0.11692345  0.46522138  0.66119246     0.05800
C3019       C  0.88436777  0.50460235  0.69765494    -0.20000
C3020       C  0.89664656  0.49774031  0.72303389    -0.06600
C3021       C  0.87886878  0.49179774  0.74522374     0.14300
C3022       C  0.85038061  0.49221190  0.74153100    -0.20100
C3023       C  0.83783273  0.49886696  0.71613028    -0.06600
C3024       C  0.85574578  0.50532935  0.69395917     0.14300
C3025       C  0.84496132  0.51282693  0.66604385    -0.23400
H3026       H  0.89736441  0.50946931  0.68038918     0.15500
H3027       H  0.83771981  0.48750340  0.75909632     0.15600
C3028       C  0.88999014  0.48550365  0.77331296    -0.23400
H3029       H  0.86133707  0.51666032  0.65093069     0.05800
H3030       H  0.83257397  0.53164221  0.66757941     0.09000
H3031       H  0.83260454  0.49601923  0.65801843     0.09000
H3032       H  0.90210725  0.50283765  0.78054659     0.09000
H3033       H  0.90287517  0.46701081  0.77240674     0.09000
H3034       H  0.87380353  0.48188713  0.78869362     0.05800
C3035       C  0.86210039  0.73437257  0.77071083    -0.20000
C3036       C  0.85057720  0.73730519  0.74454591    -0.06600
C3037       C  0.86706514  0.73959036  0.72101632     0.14300
C3038       C  0.89480356  0.74084534  0.72456831    -0.20100
C3039       C  0.90626280  0.74027950  0.75101959    -0.06600
C3040       C  0.88975962  0.73592543  0.77437266     0.14300
C3041       C  0.90064014  0.73436357  0.80328503    -0.23400
H3042       H  0.84917380  0.73211526  0.78863317     0.15500
H3043       H  0.90755250  0.74336934  0.70656699     0.15600
C3044       C  0.85561698  0.74241231  0.69245369    -0.23400
H3045       H  0.88441404  0.73195180  0.81888690     0.05800
H3046       H  0.91149886  0.75329013  0.80821182     0.09000
H3047       H  0.91433969  0.71654719  0.80527628     0.09000
H3048       H  0.84218497  0.76053034  0.69141685     0.09000
H3049       H  0.84414971  0.72395683  0.68722686     0.09000
H3050       H  0.87160338  0.74487258  0.67660270     0.05800
C3051       C  0.14653155  0.73234444  0.72854515    -0.20000
C3052       C  0.15845110  0.72973609  0.75452910    -0.06600
C3053       C  0.14235863  0.73017573  0.77864460     0.14300
C3054       C  0.11489626  0.73536346  0.77606987    -0.20100
C3055       C  0.10350772  0.73986141  0.75014975    -0.06600
C3056       C  0.11922757  0.73775319  0.72601819     0.14300
C3057       C  0.10776416  0.74292590  0.69774272    -0.23400
H3058       H  0.15888910  0.73201323  0.71011258     0.15500
H3059       H  0.10226818  0.73627344  0.79434736     0.15600
C3060       C  0.15374258  0.72500187  0.80694807    -0.23400
H3061       H  0.12349298  0.74205187  0.68142745     0.05800
H3062       H  0.09826003  0.76342109  0.69701645     0.09000
H3063       H  0.09265186  0.72733780  0.69281371     0.09000
H3064       H  0.16697750  0.74182301  0.81317638     0.09000
H3065       H  0.16520698  0.70553428  0.80701325     0.09000
H3066       H  0.13764232  0.72352109  0.82281596     0.05800
C3067       C  0.99546801  0.64098269  0.72798573    -0.20000
C3068       C  0.00039378  0.65119757  0.75460284    -0.06600
C3069       C  0.00444465  0.63236760  0.77635390     0.14300
C3070       C  0.00406093  0.60418310  0.77070530    -0.20100
C3071       C  0.99972939  0.59436620  0.74389248    -0.06600
C3072       C  0.99518553  0.61311061  0.72235643     0.14300
C3073       C  0.99040777  0.60447154  0.69301062    -0.23400
H3074       H  0.99204345  0.65496601  0.71102452     0.15500
H3075       H  0.00743058  0.58968526  0.78720960     0.15600
C3076       C  0.01005161  0.64172963  0.80519804    -0.23400
H3077       H  0.00623050  0.61307739  0.67944062     0.05800
H3078       H  0.97054580  0.61226943  0.68616792     0.09000
H3079       H  0.99069067  0.58214240  0.69025926     0.09000
H3080       H  0.99266479  0.65364114  0.81321389     0.09000
H3081       H  0.02826928  0.65450839  0.80524641     0.09000
H3082       H  0.01351294  0.62433221  0.81941719     0.05800
C3083       C  0.12964186  0.72106748  0.48030756    -0.20000
C3084       C  0.14541877  0.74443109  0.47775674    -0.06600
C3085       C  0.13292094  0.76932188  0.46977262     0.14300
C3086       C  0.10499868  0.77040771  0.46625743    -0.20100
C3087       C  0.08919324  0.74748913  0.47068889    -0.06600
C3088       C  0.10163939  0.72238136  0.47714824     0.14300
C3089       C  0.08524261  0.69718405  0.48139104    -0.23400
H3090       H  0.13907942  0.70195109  0.48603820     0.15500
H3091       H  0.09521960  0.78954600  0.46119701     0.15600
C3092       C  0.14866990  0.79489888  0.46474560    -0.23400
H3093       H  0.09810133  0.67917696  0.48594912     0.05800
H3094       H  0.07365324  0.69293507  0.46246281     0.09000
H3095       H  0.07112140  0.70007052  0.49894941     0.09000
H3096       H  0.16495533  0.79089359  0.44951403     0.09000
H3097       H  0.15729478  0.80230971  0.48430116     0.09000
H3098       H  0.13581410  0.81154203  0.45643508     0.05800
C3099       C  0.88067390  0.78536221  0.49249505    -0.20000
C3100       C  0.89370893  0.76188226  0.48276020    -0.06600
C3101       C  0.87868801  0.73812431  0.47866463     0.14300
C3102       C  0.85092555  0.73841611  0.48417096    -0.20100
C3103       C  0.83762297  0.76198907  0.49359977    -0.06600
C3104       C  0.85287501  0.78583484  0.49787978     0.14300
C3105       C  0.84034547  0.81165320  0.50894547    -0.23400
H3106       H  0.89247137  0.80333054  0.49622147     0.15500
H3107       H  0.83946035  0.72020813  0.48057940     0.15600
C3108       C  0.89211575  0.71235744  0.46882827    -0.23400
H3109       H  0.85566478  0.82729425  0.51315554     0.05800
H3110       H  0.82959039  0.80735845  0.52857615     0.09000
H3111       H  0.82621425  0.82049069  0.49370547     0.09000
H3112       H  0.90776832  0.70589545  0.48371910     0.09000
H3113       H  0.90158844  0.71584937  0.44836757     0.09000
H3114       H  0.87758495  0.69555644  0.46679472     0.05800
C3115       C  0.00440301  0.73058993  0.62428473    -0.20000
C3116       C  0.00102243  0.75492397  0.63929190    -0.06600
C3117       C  0.99636104  0.77920866  0.62393375     0.14300
C3118       C  0.99441616  0.77832846  0.59482266    -0.20100
C3119       C  0.99719837  0.75396886  0.58002700    -0.06600
C3120       C  0.00248515  0.72978698  0.59514385     0.14300
C3121       C  0.00602995  0.70270001  0.58117576    -0.23400
H3122       H  0.00812074  0.71180577  0.63540432     0.15500
H3123       H  0.99090512  0.79696233  0.58338579     0.15600
C3124       C  0.99439094  0.80647228  0.63786591    -0.23400
H3125       H  0.99075937  0.68837207  0.58916215     0.05800
H3126       H  0.02633264  0.69437090  0.58567206     0.09000
H3127       H  0.00381952  0.70394668  0.55849469     0.09000
H3128       H  0.01259422  0.80986017  0.65041790     0.09000
H3129       H  0.97623767  0.80747435  0.65118922     0.09000
H3130       H  0.99282459  0.82334766  0.62269223     0.05800
C3131       C  0.09404605  0.76854506  0.24405692    -0.20000
C3132       C  0.08756788  0.76852726  0.21593281    -0.06600
C3133       C  0.10773593  0.76329848  0.19612595     0.14300
C3134       C  0.13390598  0.75820860  0.20503236    -0.20100
C3135       C  0.14052519  0.75777969  0.23324984    -0.06600
C3136       C  0.12017595  0.76308140  0.25307735     0.14300
C3137       C  0.12534155  0.76250542  0.28367017    -0.23400
H3138       H  0.07832845  0.77224663  0.25919526     0.15500
H3139       H  0.14933653  0.75459107  0.18959281     0.15600
C3140       C  0.10209720  0.76369874  0.16561317    -0.23400
H3141       H  0.10665199  0.76588913  0.29585135     0.05800
H3142       H  0.13946161  0.77883912  0.28924336     0.09000
H3143       H  0.13374471  0.74239374  0.28973694     0.09000
H3144       H  0.09276514  0.78344745  0.15973948     0.09000
H3145       H  0.08850161  0.74687838  0.16020056     0.09000
H3146       H  0.12072421  0.76103078  0.15315824     0.05800
C3147       C  0.88043316  0.73798356  0.19660900    -0.20000
C3148       C  0.88949949  0.76486061  0.19539206    -0.06600
C3149       C  0.87080891  0.78665775  0.19591709     0.14300
C3150       C  0.84383236  0.78100158  0.20105838    -0.20100
C3151       C  0.83539837  0.75429553  0.20537835    -0.06600
C3152       C  0.85343098  0.73239054  0.20163430     0.14300
C3153       C  0.84474308  0.70334149  0.20512136    -0.23400
H3154       H  0.89481261  0.72133562  0.19530101     0.15500
H3155       H  0.82952678  0.79758069  0.20363770     0.15600
C3156       C  0.87922751  0.81587115  0.19322611    -0.23400
H3157       H  0.86171030  0.68883361  0.20196261     0.05800
H3158       H  0.82903273  0.69863256  0.18981145     0.09000
H3159       H  0.83661224  0.70014497  0.22623281     0.09000
H3160       H  0.88859932  0.81926704  0.17270191     0.09000
H3161       H  0.89371209  0.82089622  0.20967039     0.09000
H3162       H  0.86185470  0.83009724  0.19510596     0.05800
C3163       C  0.99244006  0.79461551  0.32883314    -0.20000
C3164       C  0.98600111  0.77206205  0.31230860    -0.06600
C3165       C  0.98073136  0.74710022  0.32644244     0.14300
C3166       C  0.98118368  0.74584006  0.35570592    -0.20100
C3167       C  0.98727233  0.76846693  0.37200356    -0.06600
C3168       C  0.99326276  0.79312297  0.35808995     0.14300
C3169       C  0.00078615  0.81836185  0.37352145    -0.23400
H3170       H  0.99697947  0.81377119  0.31887284     0.15500
H3171       H  0.97712411  0.72676967  0.36606168     0.15600
C3172       C  0.97556222  0.72112671  0.31106944    -0.23400
H3173       H  0.02118579  0.82474518  0.36704318     0.05800
H3174       H  0.00084684  0.81541774  0.39617396     0.09000
H3175       H  0.98626456  0.83493575  0.36869408     0.09000
H3176       H  0.99258839  0.71659893  0.29686013     0.09000
H3177       H  0.95660510  0.72294609  0.29932281     0.09000
H3178       H  0.97348779  0.70349440  0.32523797     0.05800
C3179       C  0.10913741  0.48172336  0.23560057    -0.20000
C3180       C  0.09155177  0.49734004  0.25203645    -0.06600
C3181       C  0.10225057  0.50935988  0.27620002     0.14300
C3182       C  0.13007521  0.50653779  0.28234008    -0.20100
C3183       C  0.14769544  0.49143601  0.26533329    -0.06600
C3184       C  0.13654214  0.47820600  0.24209405     0.14300
C3185       C  0.15333840  0.45949276  0.22425600    -0.23400
H3186       H  0.10120242  0.47189985  0.21749004     0.15500
H3187       H  0.13821348  0.51684653  0.30005664     0.15600
C3188       C  0.08431895  0.52478162  0.29589200    -0.23400
H3189       H  0.14104637  0.44908929  0.20856364     0.05800
H3190       H  0.16282192  0.44362055  0.23733853     0.09000
H3191       H  0.16904871  0.47093644  0.21304420     0.09000
H3192       H  0.06787867  0.51146252  0.30317218     0.09000
H3193       H  0.07558193  0.54294890  0.28567069     0.09000
H3194       H  0.09551531  0.53181505  0.31419545     0.05800
C3195       C  0.87802425  0.51409470  0.22714655    -0.20000
C3196       C  0.89692235  0.50619815  0.24699743    -0.06600
C3197       C  0.88726439  0.49932509  0.27372701     0.14300
C3198       C  0.85921867  0.49935029  0.27948917    -0.20100
C3199       C  0.84020794  0.50597472  0.25913065    -0.06600
C3200       C  0.85012858  0.51421098  0.23278836     0.14300
C3201       C  0.83137950  0.52359383  0.21034951    -0.23400
H3202       H  0.88519791  0.51987445  0.20684537     0.15500
H3203       H  0.85211864  0.49314967  0.29967929     0.15600
C3204       C  0.90664965  0.49184841  0.29621304    -0.23400
H3205       H  0.84247190  0.53138705  0.19208307     0.05800
H3206       H  0.81821081  0.54024152  0.21813673     0.09000
H3207       H  0.81898719  0.50647288  0.20328183     0.09000
H3208       H  0.92059100  0.50891860  0.29968089     0.09000
H3209       H  0.91839336  0.47348723  0.29024230     0.09000
H3210       H  0.89611727  0.48744714  0.31594762     0.05800
C3211       C  0.00577759  0.61589936  0.19231046    -0.20000
C3212       C  0.99859456  0.60520080  0.21848899    -0.06600
C3213       C  0.99169597  0.62466721  0.23905952     0.14300
C3214       C  0.99058087  0.65296193  0.23274829    -0.20100
C3215       C  0.99719801  0.66386216  0.20649334    -0.06600
C3216       C  0.00548921  0.64450551  0.18621641     0.14300
C3217       C  0.01373401  0.65372280  0.15785087    -0.23400
H3218       H  0.01152050  0.60166649  0.17629361     0.15500
H3219       H  0.98476500  0.66680996  0.24909732     0.15600
C3220       C  0.98567118  0.61641003  0.26836535    -0.23400
H3221       H  0.01916636  0.63630117  0.14436752     0.05800
H3222       H  0.03153854  0.66698609  0.15923923     0.09000
H3223       H  0.99694262  0.66507449  0.14804343     0.09000
H3224       H  0.98802899  0.59428018  0.27194469     0.09000
H3225       H  0.96476514  0.62244502  0.27379390     0.09000
H3226       H  0.99962562  0.62686722  0.28244708     0.05800
C3227       C  0.14559720  0.24438708  0.80049025    -0.20000
C3228       C  0.15743102  0.26596652  0.78640936    -0.06600
C3229       C  0.14139221  0.28525414  0.77260562     0.14300
C3230       C  0.11401862  0.28040531  0.76987736    -0.20100
C3231       C  0.10272544  0.25634541  0.78010244    -0.06600
C3232       C  0.11831658  0.23899122  0.79734087     0.14300
C3233       C  0.10740245  0.21358519  0.81061541    -0.23400
H3234       H  0.15839294  0.22973784  0.81096791     0.15500
H3235       H  0.10189192  0.29444591  0.75787760     0.15600
C3236       C  0.15370358  0.30943501  0.75838091    -0.23400
H3237       H  0.12290335  0.20258834  0.82279740     0.05800
H3238       H  0.10026322  0.19942523  0.79456055     0.09000
H3239       H  0.09074769  0.21894701  0.82497561     0.09000
H3240       H  0.16805726  0.30260215  0.74215753     0.09000
H3241       H  0.16451725  0.32184869  0.77369213     0.09000
H3242       H  0.13825326  0.32254007  0.74844173     0.05800
C3243       C  0.89585171  0.26279008  0.78181316    -0.20000
C3244       C  0.90730792  0.24021108  0.76827033    -0.06600
C3245       C  0.89076169  0.21837899  0.76050023     0.14300
C3246       C  0.86314264  0.22045386  0.76522292    -0.20100
C3247       C  0.85164169  0.24383853  0.77695357    -0.06600
C3248       C  0.86816029  0.26495586  0.78614377     0.14300
C3249       C  0.85681700  0.28954607  0.80079287    -0.23400
H3250       H  0.90854383  0.27924435  0.78841134     0.15500
H3251       H  0.85024718  0.20430333  0.75823148     0.15600
C3252       C  0.90174988  0.19279700  0.74736763    -0.23400
H3253       H  0.87293404  0.30299497  0.80829756     0.05800
H3254       H  0.84474169  0.28298289  0.81889539     0.09000
H3255       H  0.84405679  0.30176777  0.78669954     0.09000
H3256       H  0.91740834  0.18355930  0.76072081     0.09000
H3257       H  0.91030652  0.19745416  0.72673826     0.09000
H3258       H  0.88589329  0.17741612  0.74438768     0.05800
C3259       C  0.00182296  0.38300944  0.72344972    -0.20000
C3260       C  0.00097605  0.40043338  0.74607700    -0.06600
C3261       C  0.00061905  0.38914590  0.77298761     0.14300
C3262       C  0.00145420  0.36063717  0.77643609    -0.20100
C3263       C  0.00282140  0.34302288  0.75365860    -0.06600
C3264       C  0.00259156  0.35468645  0.72667531     0.14300
C3265       C  0.00254297  0.33775691  0.70076567    -0.23400
H3266       H  0.00192464  0.39181162  0.70293283     0.15500
H3267       H  0.00158007  0.35218748  0.79709184     0.15600
C3268       C  0.99965114  0.40659701  0.79840345    -0.23400
H3269       H  0.99967944  0.35040933  0.68199368     0.05800
H3270       H  0.98586296  0.32300609  0.70162311     0.09000
H3271       H  0.02204854  0.32694857  0.69820097     0.09000
H3272       H  0.98151888  0.40163196  0.81077155     0.09000
H3273       H  0.99892619  0.42861308  0.79356364     0.09000
H3274       H  0.01775878  0.40252184  0.81103244     0.05800
C3275       C  0.89453041  0.22498032  0.49978168    -0.20000
C3276       C  0.91040362  0.24524639  0.48804806    -0.06600
C3277       C  0.89888129  0.27066745  0.48128220     0.14300
C3278       C  0.87146168  0.27526791  0.48643874    -0.20100
C3279       C  0.85551945  0.25521770  0.49886199    -0.06600
C3280       C  0.86726426  0.22958462  0.50545435     0.14300
C3281       C  0.85133499  0.20668937  0.51801005    -0.23400
H3282       H  0.90379002  0.20565511  0.50512502     0.15500
H3283       H  0.86258638  0.29482961  0.48134443     0.15600
C3284       C  0.91574608  0.29308277  0.46935637    -0.23400
H3285       H  0.86352073  0.18775833  0.51993723     0.05800
H3286       H  0.83381180  0.20211644  0.50486910     0.09000
H3287       H  0.84444698  0.21225131  0.53906103     0.09000
H3288       H  0.92474349  0.28643581  0.44947204     0.09000
H3289       H  0.93203866  0.29815606  0.48389473     0.09000
H3290       H  0.90369138  0.31180755  0.46553205     0.05800
C3291       C  0.14387910  0.26623196  0.47911009    -0.20000
C3292       C  0.15974393  0.24282025  0.47495207    -0.06600
C3293       C  0.14710033  0.21798475  0.46839335     0.14300
C3294       C  0.11901054  0.21689562  0.46810085    -0.20100
C3295       C  0.10333309  0.23985172  0.47419564    -0.06600
C3296       C  0.11576543  0.26498675  0.47891559     0.14300
C3297       C  0.09930860  0.29031722  0.48412432    -0.23400
H3298       H  0.15345500  0.28530892  0.48380067     0.15500
H3299       H  0.10913903  0.19785718  0.46388725     0.15600
C3300       C  0.16289982  0.19257929  0.46139766    -0.23400
H3301       H  0.11217312  0.30833309  0.48709737     0.05800
H3302       H  0.08681170  0.28770294  0.50294909     0.09000
H3303       H  0.08603132  0.29436551  0.46626022     0.09000
H3304       H  0.17365619  0.18483199  0.47979246     0.09000
H3305       H  0.17746753  0.19695169  0.44457902     0.09000
H3306       H  0.14965620  0.17605286  0.45428243     0.05800
C3307       C  0.00172235  0.21727454  0.60080617    -0.20000
C3308       C  0.01247936  0.23923510  0.58596095    -0.06600
C3309       C  0.02242578  0.26143914  0.60131575     0.14300
C3310       C  0.02169894  0.26083471  0.63059265    -0.20100
C3311       C  0.01054402  0.23898251  0.64555975    -0.06600
C3312       C  0.00052000  0.21681009  0.63001355     0.14300
C3313       C  0.98895174  0.19207793  0.64388758    -0.23400
H3314       H  0.99392118  0.20029745  0.58930818     0.15500
H3315       H  0.02932946  0.27807735  0.64180881     0.15600
C3316       C  0.03322887  0.28652285  0.58751011    -0.23400
H3317       H  0.98377352  0.17610581  0.62878115     0.05800
H3318       H  0.97023218  0.19763086  0.65512893     0.09000
H3319       H  0.00380357  0.18321376  0.65840492     0.09000
H3320       H  0.03234655  0.28560805  0.56472814     0.09000
H3321       H  0.05447036  0.28933547  0.59351034     0.09000
H3322       H  0.02129559  0.30452038  0.59424086     0.05800
C3323       C  0.89103361  0.20162971  0.23236919    -0.20000
C3324       C  0.90119178  0.22566128  0.22053813    -0.06600
C3325       C  0.88461039  0.24913650  0.21939375     0.14300
C3326       C  0.85892836  0.24818594  0.23118729    -0.20100
C3327       C  0.84929810  0.22439032  0.24354295    -0.06600
C3328       C  0.86524752  0.20069167  0.24380312     0.14300
C3329       C  0.85552900  0.17477135  0.25693480    -0.23400
H3330       H  0.90354238  0.18349063  0.23313220     0.15500
H3331       H  0.84602494  0.26605973  0.23039234     0.15600
C3332       C  0.89378581  0.27537423  0.20649730    -0.23400
H3333       H  0.87118864  0.15854527  0.25642215     0.05800
H3334       H  0.83776987  0.16718014  0.24579683     0.09000
H3335       H  0.85003185  0.17856400  0.27881226     0.09000
H3336       H  0.89830113  0.27217081  0.18430379     0.09000
H3337       H  0.91192135  0.28275996  0.21716810     0.09000
H3338       H  0.87813190  0.29155898  0.20793838     0.05800
C3339       C  0.10967401  0.25746555  0.23235160    -0.20000
C3340       C  0.09953912  0.23365759  0.22054381    -0.06600
C3341       C  0.11658607  0.21068003  0.21725966     0.14300
C3342       C  0.14311428  0.21219957  0.22608425    -0.20100
C3343       C  0.15310447  0.23594649  0.23786423    -0.06600
C3344       C  0.13633680  0.25898265  0.24088927     0.14300
C3345       C  0.14665683  0.28547593  0.25189771    -0.23400
H3346       H  0.09668942  0.27512460  0.23473650     0.15500
H3347       H  0.15635560  0.19474295  0.22350854     0.15600
C3348       C  0.10716287  0.18429556  0.20510755    -0.23400
H3349       H  0.13094980  0.30165831  0.25168527     0.05800
H3350       H  0.16375427  0.29250553  0.23902107     0.09000
H3351       H  0.15330294  0.28278069  0.27351981     0.09000
H3352       H  0.10124844  0.18746176  0.18331323     0.09000
H3353       H  0.08992039  0.17644048  0.21723209     0.09000
H3354       H  0.12317071  0.16841208  0.20527419     0.05800
C3355       C  0.99233397  0.35801313  0.19048093    -0.20000
C3356       C  0.99196483  0.33956354  0.21292640    -0.06600
C3357       C  0.99094723  0.35168093  0.23978849     0.14300
C3358       C  0.99061098  0.38052202  0.24322985    -0.20100
C3359       C  0.99174224  0.39883676  0.22089129    -0.06600
C3360       C  0.99254604  0.38695328  0.19407179     0.14300
C3361       C  0.99406943  0.40433113  0.16854692    -0.23400
H3362       H  0.99321681  0.34984535  0.16978778     0.15500
H3363       H  0.98977663  0.38894347  0.26382108     0.15600
C3364       C  0.98963137  0.33437189  0.26545468    -0.23400
H3365       H  0.97645359  0.40035646  0.15534080     0.05800
H3366       H  0.01266968  0.39919855  0.15686209     0.09000
H3367       H  0.99432067  0.42635907  0.17316487     0.09000
H3368       H  0.00865219  0.32275570  0.26800816     0.09000
H3369       H  0.97250834  0.32020269  0.26418009     0.09000
H3370       H  0.98676067  0.34682543  0.28430922     0.05800
C3371       C  0.00355558  0.20092390  0.33314477    -0.20000
C3372       C  0.99827450  0.22486697  0.31794590    -0.06600
C3373       C  0.99316251  0.24909038  0.33329641     0.14300
C3374       C  0.99373860  0.24867248  0.36252355    -0.20100
C3375       C  0.99977310  0.22496198  0.37755138    -0.06600
C3376       C  0.00471720  0.20073862  0.36242176     0.14300
C3377       C  0.01150123  0.17429280  0.37653389    -0.23400
H3378       H  0.00754551  0.18220809  0.32208573     0.15500
H3379       H  0.98991231  0.26726456  0.37385176     0.15600
C3380       C  0.98658358  0.27565673  0.31919036    -0.23400
H3381       H  0.03161068  0.16710240  0.36953972     0.05800
H3382       H  0.99638993  0.15884609  0.37107610     0.09000
H3383       H  0.01182468  0.17603487  0.39929590     0.09000
H3384       H  0.96915320  0.27310880  0.30534728     0.09000
H3385       H  0.00418233  0.28277450  0.30717183     0.09000
H3386       H  0.98134417  0.29186353  0.33422414     0.05800
C3387       C  0.90600195  0.74909215  0.98300398    -0.20000
C3388       C  0.91546525  0.77351134  0.97154937    -0.06600
C3389       C  0.89760098  0.79571919  0.96861430     0.14300
C3390       C  0.87096338  0.79300213  0.97668343    -0.20100
C3391       C  0.86122288  0.76879107  0.98817714    -0.06600
C3392       C  0.87896246  0.74640544  0.99137132     0.14300
C3393       C  0.86963499  0.71993420  0.00348593    -0.23400
H3394       H  0.92014463  0.73258176  0.98646746     0.15500
H3395       H  0.85767200  0.81046156  0.97456339     0.15600
C3396       C  0.90685968  0.82309388  0.95863118    -0.23400
H3397       H  0.88601683  0.70445503  0.00377676     0.05800
H3398       H  0.85291103  0.71183560  0.99106612     0.09000
H3399       H  0.86271978  0.72310250  0.02503873     0.09000
H3400       H  0.91382475  0.82133845  0.93708222     0.09000
H3401       H  0.92328666  0.83062988  0.97179737     0.09000
H3402       H  0.89046912  0.83856261  0.95904268     0.05800
C3403       C  0.10055537  0.78238098  0.00661317    -0.20000
C3404       C  0.08578732  0.76879503  0.98646147    -0.06600
C3405       C  0.09895332  0.74968700  0.96921655     0.14300
C3406       C  0.12699115  0.74680373  0.97076862    -0.20100
C3407       C  0.14154921  0.76153296  0.99018254    -0.06600
C3408       C  0.12815540  0.77878797  0.00889452     0.14300
C3409       C  0.14317424  0.79466803  0.03031618    -0.23400
H3410       H  0.09070255  0.79721310  0.01963706     0.15500
H3411       H  0.13750440  0.73321897  0.95674469     0.15600
C3412       C  0.08401206  0.73192927  0.94951137    -0.23400
H3413       H  0.12953999  0.80782210  0.04277697     0.05800
H3414       H  0.15824046  0.80786220  0.02015876     0.09000
H3415       H  0.15356256  0.78044270  0.04458743     0.09000
H3416       H  0.09006969  0.73679133  0.92801132     0.09000
H3417       H  0.06194194  0.73430135  0.95155577     0.09000
H3418       H  0.08894999  0.71028922  0.95384980     0.05800
C3419       C  0.02953896  0.80706252  0.90006828    -0.20000
C3420       C  0.00549180  0.81562621  0.91333672    -0.06600
C3421       C  0.98291454  0.81698004  0.89523283     0.14300
C3422       C  0.98334531  0.80364086  0.86893880    -0.20100
C3423       C  0.00655786  0.79060355  0.85817040    -0.06600
C3424       C  0.03030554  0.79391388  0.87383197     0.14300
C3425       C  0.05677656  0.78311213  0.86315414    -0.23400
H3426       H  0.04829696  0.81180536  0.90965279     0.15500
H3427       H  0.96551597  0.80438353  0.85628857     0.15600
C3428       C  0.95879194  0.83439537  0.90178126    -0.23400
H3429       H  0.07318306  0.78619196  0.87816315     0.05800
H3430       H  0.06232924  0.79366060  0.84373241     0.09000
H3431       H  0.05525398  0.76097163  0.85925460     0.09000
H3432       H  0.95969915  0.84346307  0.92261985     0.09000
H3433       H  0.94033653  0.82225339  0.89979961     0.09000
H3434       H  0.95761334  0.85128214  0.88659810     0.05800
C3435       C  0.97214551  0.80852594  0.04993467    -0.20000
C3436       C  0.99663117  0.81506872  0.03694343    -0.06600
C3437       C  0.01911958  0.81651191  0.05495607     0.14300
C3438       C  0.01805852  0.80454065  0.08171727    -0.20100
C3439       C  0.99434173  0.79325056  0.09255168    -0.06600
C3440       C  0.97076195  0.79657970  0.07650680     0.14300
C3441       C  0.94386694  0.78705666  0.08695222    -0.23400
H3442       H  0.95363851  0.81325747  0.03945515     0.15500
H3443       H  0.03561792  0.80529686  0.09473453     0.15600
C3444       C  0.04387081  0.83227389  0.04757878    -0.23400
H3445       H  0.92807066  0.78926372  0.07102998     0.05800
H3446       H  0.93734462  0.79915214  0.10507470     0.09000
H3447       H  0.94523489  0.76524242  0.09272114     0.09000
H3448       H  0.04307338  0.84113903  0.02660051     0.09000
H3449       H  0.06188578  0.81903224  0.04931285     0.09000
H3450       H  0.04600266  0.84929708  0.06231787     0.05800
C3451       C  0.81787511  0.11490702  0.01028639    -0.20000
C3452       C  0.79027923  0.12027870  0.01523994    -0.06600
C3453       C  0.77460729  0.09704170  0.02127211     0.14300
C3454       C  0.78630774  0.07028462  0.02130463    -0.20100
C3455       C  0.81384413  0.06425933  0.01498655    -0.06600
C3456       C  0.82955996  0.08799681  0.00973700     0.14300
C3457       C  0.85874704  0.08590278  0.00327274    -0.23400
H3458       H  0.83056154  0.13216681  0.00599826     0.15500
H3459       H  0.77316036  0.05337466  0.02550833     0.15600
C3460       C  0.74531100  0.10025612  0.02840019    -0.23400
H3461       H  0.86787982  0.10606093  0.99947479     0.05800
H3462       H  0.86151244  0.07391500  0.98414853     0.09000
H3463       H  0.86904975  0.07694842  0.02137541     0.09000
H3464       H  0.73427502  0.10884482  0.01055107     0.09000
H3465       H  0.74291975  0.11398535  0.04637855     0.09000
H3466       H  0.73604250  0.08051501  0.03382051     0.05800
C3467       C  0.81070215  0.89512052  0.98659758    -0.20000
C3468       C  0.78745339  0.88732949  0.00190912    -0.06600
C3469       C  0.77496413  0.90876084  0.01702411     0.14300
C3470       C  0.78550135  0.93571143  0.01640522    -0.20100
C3471       C  0.81017709  0.94326581  0.00340595    -0.06600
C3472       C  0.82140169  0.92227908  0.98635982     0.14300
C3473       C  0.84287029  0.92806662  0.96535373    -0.23400
H3474       H  0.82037460  0.87996764  0.97366430     0.15500
H3475       H  0.77357907  0.95141645  0.02624436     0.15600
C3476       C  0.75003675  0.90373693  0.03392708    -0.23400
H3477       H  0.83646061  0.92051192  0.94491314     0.05800
H3478       H  0.86180234  0.91751980  0.97118204     0.09000
H3479       H  0.84634156  0.95001739  0.96264896     0.09000
H3480       H  0.75442287  0.88847805  0.05022973     0.09000
H3481       H  0.73375222  0.89636808  0.02047780     0.09000
H3482       H  0.74266156  0.92246216  0.04434186     0.05800
C3483       C  0.79214458  0.03669612  0.90658897    -0.20000
C3484       C  0.77634201  0.01861419  0.92199698    -0.06600
C3485       C  0.75412955  0.00615388  0.90955135     0.14300
C3486       C  0.74958117  0.01051254  0.88141051    -0.20100
C3487       C  0.76652307  0.02720159  0.86578937    -0.06600
C3488       C  0.78757448  0.04102374  0.87858891     0.14300
C3489       C  0.80629780  0.05889977  0.86226353    -0.23400
H3490       H  0.80912919  0.04629751  0.91620306     0.15500
H3491       H  0.73380540  0.99943324  0.87122718     0.15600
C3492       C  0.73514277  0.98805978  0.92514549    -0.23400
H3493       H  0.82176144  0.06816244  0.87554312     0.05800
H3494       H  0.79463798  0.07553537  0.85231002     0.09000
H3495       H  0.81681250  0.04682207  0.84612195     0.09000
H3496       H  0.73938623  0.98715029  0.94749637     0.09000
H3497       H  0.73633244  0.96716793  0.91664389     0.09000
H3498       H  0.71431170  0.99593024  0.92281991     0.05800
C3499       C  0.75400533  0.99905172  0.13861287    -0.20000
C3500       C  0.76860271  0.98294304  0.15748680    -0.06600
C3501       C  0.79312611  0.97062188  0.14842146     0.14300
C3502       C  0.80280106  0.97614553  0.12181692    -0.20100
C3503       C  0.78895747  0.99343049  0.10383195    -0.06600
C3504       C  0.76379487  0.00424165  0.11187970     0.14300
C3505       C  0.74686469  0.02043315  0.09200288    -0.23400
H3506       H  0.73510440  0.00824722  0.14493392     0.15500
H3507       H  0.82159906  0.96712732  0.11489779     0.15600
C3508       C  0.80955530  0.95158534  0.16620817    -0.23400
H3509       H  0.72703385  0.02594625  0.10108877     0.05800
H3510       H  0.74332892  0.00829008  0.07315283     0.09000
H3511       H  0.75706537  0.03955686  0.08629161     0.09000
H3512       H  0.79679304  0.93482722  0.17396471     0.09000
H3513       H  0.81844509  0.96279490  0.18365338     0.09000
H3514       H  0.82652209  0.94220517  0.15455949     0.05800
C3515       C  0.89451706  0.22074098  0.95588191    -0.20000
C3516       C  0.91176046  0.23244344  0.97528707    -0.06600
C3517       C  0.90104651  0.25125908  0.99452301     0.14300
C3518       C  0.87314386  0.25434859  0.99672401    -0.20100
C3519       C  0.85605760  0.24066408  0.97880469    -0.06600
C3520       C  0.86680288  0.22475977  0.95732161     0.14300
C3521       C  0.84898862  0.21011838  0.93736723    -0.23400
H3522       H  0.90238701  0.20652618  0.94084260     0.15500
H3523       H  0.86463965  0.26708899  0.01282457     0.15600
C3524       C  0.91830481  0.26847902  0.01266549    -0.23400
H3525       H  0.86081467  0.19802877  0.92218158     0.05800
H3526       H  0.83662091  0.22509128  0.92576869     0.09000
H3527       H  0.83560512  0.19602826  0.94874527     0.09000
H3528       H  0.93986450  0.26702876  0.00703109     0.09000
H3529       H  0.91551521  0.26242478  0.03455531     0.09000
H3530       H  0.91232438  0.29015301  0.01029358     0.05800
C3531       C  0.09666087  0.24290727  0.99008404    -0.20000
C3532       C  0.08772483  0.21804616  0.97991931    -0.06600
C3533       C  0.10637871  0.19808134  0.97120033     0.14300
C3534       C  0.13363799  0.20369010  0.97234569    -0.20100
C3535       C  0.14290200  0.22843834  0.98268322    -0.06600
C3536       C  0.12418107  0.24842986  0.99167844     0.14300
C3537       C  0.13285813  0.27556062  0.00255119    -0.23400
H3538       H  0.08197335  0.25782097  0.99700963     0.15500
H3539       H  0.14788035  0.18807484  0.96603300     0.15600
C3540       C  0.09776498  0.17023582  0.96212227    -0.23400
H3541       H  0.11539822  0.28914305  0.00688540     0.05800
H3542       H  0.14585995  0.28579312  0.98710937     0.09000
H3543       H  0.14392473  0.27282256  0.02213650     0.09000
H3544       H  0.08643501  0.17160310  0.94259910     0.09000
H3545       H  0.08509049  0.16079004  0.97836180     0.09000
H3546       H  0.11522382  0.15651924  0.95829680     0.05800
C3547       C  0.00057494  0.22566421  0.88392346    -0.20000
C3548       C  0.00174474  0.20658665  0.86273413    -0.06600
C3549       C  0.00184472  0.17855944  0.87089750     0.14300
C3550       C  0.00016809  0.17091668  0.89942585    -0.20100
C3551       C  0.99922400  0.19024036  0.92083664    -0.06600
C3552       C  0.99998747  0.21844882  0.91211902     0.14300
C3553       C  0.00055823  0.24282009  0.93118782    -0.23400
H3554       H  0.00092074  0.24703942  0.87844491     0.15500
H3555       H  0.99999352  0.14963927  0.90490010     0.15600
C3556       C  0.00357956  0.15631966  0.84971362    -0.23400
H3557       H  0.01904910  0.25459324  0.92703461     0.05800
H3558       H  0.00028605  0.23844845  0.95341036     0.09000
H3559       H  0.98292035  0.25615500  0.92698273     0.09000
H3560       H  0.02301089  0.15743070  0.83848559     0.09000
H3561       H  0.98675269  0.15838847  0.83495577     0.09000
H3562       H  0.00245043  0.13584193  0.85930137     0.05800
C3563       C  0.01996445  0.18842534  0.05749555    -0.20000
C3564       C  0.99565039  0.18645516  0.04311006    -0.06600
C3565       C  0.97211590  0.19044956  0.05973592     0.14300
C3566       C  0.97371386  0.20322625  0.08612002    -0.20100
C3567       C  0.99850006  0.20955451  0.09845469    -0.06600
C3568       C  0.02198056  0.20062091  0.08384458     0.14300
C3569       C  0.04977626  0.20409190  0.09536845    -0.23400
H3570       H  0.03789527  0.18007106  0.04803236     0.15500
H3571       H  0.95543191  0.20651685  0.09792499     0.15600
C3572       C  0.94586878  0.17742281  0.05252510    -0.23400
H3573       H  0.06562363  0.19864826  0.08008179     0.05800
H3574       H  0.05275107  0.19060340  0.11347057     0.09000
H3575       H  0.05279347  0.22561472  0.10123090     0.09000
H3576       H  0.94676881  0.16688763  0.03237805     0.09000
H3577       H  0.92927306  0.19263370  0.05256793     0.09000
H3578       H  0.94103696  0.16189042  0.06838627     0.05800
C3579       C  0.17468530  0.91919897  0.99379132    -0.20000
C3580       C  0.19237671  0.94032491  0.00102010    -0.06600
C3581       C  0.21985524  0.93140797  0.00561586     0.14300
C3582       C  0.22794526  0.90359496  0.00297841    -0.20100
C3583       C  0.21046895  0.88267736  0.99562286    -0.06600
C3584       C  0.18313325  0.89112345  0.99114794     0.14300
C3585       C  0.16222575  0.87044999  0.98428780    -0.23400
H3586       H  0.15391324  0.92450126  0.99021541     0.15500
H3587       H  0.24878041  0.89821425  0.00663566     0.15600
C3588       C  0.24246474  0.95009996  0.01348822    -0.23400
H3589       H  0.14191935  0.87980591  0.98261155     0.05800
H3590       H  0.16144851  0.85475791  0.00073849     0.09000
H3591       H  0.16708827  0.86076080  0.96423276     0.09000
H3592       H  0.25129684  0.94305975  0.03325037     0.09000
H3593       H  0.23692699  0.97158204  0.01633836     0.09000
H3594       H  0.25831605  0.94930437  0.99729733     0.05800
C3595       C  0.22436661  0.09672128  0.02271937    -0.20000
C3596       C  0.20847778  0.11750383  0.01117125    -0.06600
C3597       C  0.18203270  0.10947741  0.00317114     0.14300
C3598       C  0.17312286  0.08174426  0.00598390    -0.20100
C3599       C  0.18975407  0.06035768  0.01598853    -0.06600
C3600       C  0.21634948  0.06892616  0.02411295     0.14300
C3601       C  0.23870239  0.04963299  0.03252793    -0.23400
H3602       H  0.24450365  0.10186884  0.02904222     0.15500
H3603       H  0.15334048  0.07660729  0.99880454     0.15600
C3604       C  0.16266783  0.13024277  0.99176116    -0.23400
H3605       H  0.25678519  0.05361318  0.01968147     0.05800
H3606       H  0.23459423  0.02794587  0.02972511     0.09000
H3607       H  0.24384311  0.05314350  0.05444800     0.09000
H3608       H  0.17031263  0.13827156  0.97185368     0.09000
H3609       H  0.16000984  0.14717905  0.00661973     0.09000
H3610       H  0.14263713  0.12138794  0.98795602     0.05800
C3611       C  0.21939196  0.03597030  0.90913680    -0.20000
C3612       C  0.23264649  0.01578151  0.92446886    -0.06600
C3613       C  0.25305408  0.00006312  0.91199023     0.14300
C3614       C  0.25740021  0.00262778  0.88364562    -0.20100
C3615       C  0.24179984  0.02056342  0.86746289    -0.06600
C3616       C  0.22365006  0.03872853  0.88081033     0.14300
C3617       C  0.20763086  0.06026520  0.86572867    -0.23400
H3618       H  0.20406492  0.04837165  0.91902770     0.15500
H3619       H  0.27216354  0.98931016  0.87404374     0.15600
C3620       C  0.27028612  0.98026539  0.92789757    -0.23400
H3621       H  0.19658836  0.07388373  0.88018894     0.05800
H3622       H  0.19237565  0.05075817  0.85241993     0.09000
H3623       H  0.22127997  0.07311707  0.85321706     0.09000
H3624       H  0.26649150  0.95928232  0.92069860     0.09000
H3625       H  0.26662582  0.98122194  0.95042491     0.09000
H3626       H  0.29176917  0.98502062  0.92437113     0.05800
C3627       C  0.20742733  0.96456776  0.14887483    -0.20000
C3628       C  0.23241919  0.97548063  0.15629248    -0.06600
C3629       C  0.24714760  0.99029155  0.13607946     0.14300
C3630       C  0.23601793  0.99438497  0.10985819    -0.20100
C3631       C  0.21066090  0.98449684  0.10334891    -0.06600
C3632       C  0.19625175  0.96928958  0.12290800     0.14300
C3633       C  0.16840514  0.95937432  0.11690523    -0.23400
H3634       H  0.19571527  0.95340504  0.16391450     0.15500
H3635       H  0.24691287  0.00574274  0.09430686     0.15600
C3636       C  0.27417421  0.00252142  0.14171164    -0.23400
H3637       H  0.15927013  0.94917112  0.13508146     0.05800
H3638       H  0.16900475  0.94453317  0.09978326     0.09000
H3639       H  0.15527481  0.97683559  0.11115933     0.09000
H3640       H  0.28832899  0.98651606  0.14898971     0.09000
H3641       H  0.27217622  0.01886859  0.15730394     0.09000
H3642       H  0.28305780  0.01184624  0.12291921     0.05800
C3643       C  0.92598085  0.00821035  0.82287541    -0.20000
C3644       C  0.94588222  0.00388024  0.80226695    -0.06600
C3645       C  0.93548155  0.00087639  0.77470165     0.14300
C3646       C  0.90734673  0.00161228  0.76938438    -0.20100
C3647       C  0.88776964  0.00464774  0.79015565    -0.06600
C3648       C  0.89768738  0.00837207  0.81738768     0.14300
C3649       C  0.87845550  0.01356151  0.84091099    -0.23400
H3650       H  0.93219141  0.01158712  0.84365731     0.15500
H3651       H  0.90056215  0.99902918  0.74838200     0.15600
C3652       C  0.95284202  0.99648379  0.74938070    -0.23400
H3653       H  0.88913195  0.01742984  0.86049951     0.05800
H3654       H  0.86549126  0.99565497  0.84419465     0.09000
H3655       H  0.86578518  0.03166691  0.83624778     0.09000
H3656       H  0.97454775  0.99503473  0.75316484     0.09000
H3657       H  0.94951210  0.01349119  0.73466423     0.09000
H3658       H  0.94705184  0.97724295  0.73925060     0.05800
C3659       C  0.00545391  0.09272375  0.73655274    -0.20000
C3660       C  0.01602168  0.08380112  0.76171458    -0.06600
C3661       C  0.02788250  0.10230796  0.77990971     0.14300
C3662       C  0.02868185  0.12953621  0.77255264    -0.20100
C3663       C  0.01715857  0.13887430  0.74795764    -0.06600
C3664       C  0.00578178  0.12032496  0.72939440     0.14300
C3665       C  0.99433168  0.12940810  0.70219504    -0.23400
H3666       H  0.99637472  0.07809278  0.72295081     0.15500
H3667       H  0.03700977  0.14389970  0.78697932     0.15600
C3668       C  0.03804147  0.09382846  0.80792985    -0.23400
H3669       H  0.98768444  0.11188677  0.68971151     0.05800
H3670       H  0.00985322  0.14042929  0.69019522     0.09000
H3671       H  0.97665647  0.14290489  0.70555971     0.09000
H3672       H  0.05573649  0.08015328  0.80579773     0.09000
H3673       H  0.02192471  0.08336663  0.81962523     0.09000
H3674       H  0.04444058  0.11152407  0.82029593     0.05800
C3675       C  0.10484944  0.98696020  0.77121517    -0.20000
C3676       C  0.12396132  0.99392428  0.79105594    -0.06600
C3677       C  0.11356279  0.00011805  0.81783641     0.14300
C3678       C  0.08522270  0.99955617  0.82361707    -0.20100
C3679       C  0.06573125  0.99315024  0.80354642    -0.06600
C3680       C  0.07661901  0.98724355  0.77647713     0.14300
C3681       C  0.05964918  0.98224168  0.75132274    -0.23400
H3682       H  0.11199204  0.98233906  0.75057875     0.15500
H3683       H  0.07846582  0.00529228  0.84390629     0.15600
C3684       C  0.13243246  0.00684074  0.84086330    -0.23400
H3685       H  0.06389221  0.96151032  0.74335056     0.05800
H3686       H  0.06492675  0.99720834  0.73503924     0.09000
H3687       H  0.03785213  0.98422821  0.75458611     0.09000
H3688       H  0.14323541  0.02587201  0.83603448     0.09000
H3689       H  0.14716415  0.98998229  0.84365874     0.09000
H3690       H  0.12159350  0.00983670  0.86071547     0.05800
C3691       C  0.98053676  0.86209749  0.77085894    -0.20000
C3692       C  0.99838761  0.85589104  0.74936643    -0.06600
C3693       C  0.01485570  0.87600792  0.73785645     0.14300
C3694       C  0.01384775  0.90205323  0.74912954    -0.20100
C3695       C  0.99725972  0.90784081  0.77189997    -0.06600
C3696       C  0.98007783  0.88780380  0.78271431     0.14300
C3697       C  0.96296545  0.89256092  0.80803588    -0.23400
H3698       H  0.96832832  0.84614389  0.77974616     0.15500
H3699       H  0.02665444  0.91779185  0.74084855     0.15600
C3700       C  0.03346039  0.86993199  0.71401784    -0.23400
H3701       H  0.95332683  0.87356661  0.81528559     0.05800
H3702       H  0.94660921  0.90727846  0.80352081     0.09000
H3703       H  0.97551716  0.90024341  0.82507562     0.09000
H3704       H  0.02170477  0.86232214  0.69634654     0.09000
H3705       H  0.04854981  0.85432281  0.72006600     0.09000
H3706       H  0.04439118  0.88832664  0.70715944     0.05800
C3707       C  0.08838437  0.01117023  0.24539186    -0.20000
C3708       C  0.08276932  0.00105733  0.21900812    -0.06600
C3709       C  0.10413770  0.99166801  0.20221557     0.14300
C3710       C  0.13028263  0.99094351  0.21270731    -0.20100
C3711       C  0.13599282  0.00036601  0.23928580    -0.06600
C3712       C  0.11484922  0.01108666  0.25570227     0.14300
C3713       C  0.12003375  0.02170888  0.28420319    -0.23400
H3714       H  0.07197826  0.01898272  0.25791957     0.15500
H3715       H  0.14657608  0.98344976  0.19978490     0.15600
C3716       C  0.09955448  0.98355515  0.17272279    -0.23400
H3717       H  0.10119202  0.02853841  0.29453529     0.05800
H3718       H  0.13371552  0.03931345  0.28304075     0.09000
H3719       H  0.12934479  0.00548333  0.29702850     0.09000
H3720       H  0.08970404  0.00056952  0.16143614     0.09000
H3721       H  0.08671259  0.96534995  0.17185548     0.09000
H3722       H  0.11869567  0.97855967  0.16192168     0.05800
C3723       C  0.99356694  0.92351770  0.15738574    -0.20000
C3724       C  0.99390210  0.94311462  0.17855325    -0.06600
C3725       C  0.99285217  0.93235003  0.20625425     0.14300
C3726       C  0.99206959  0.90386185  0.21121716    -0.20100
C3727       C  0.99112804  0.88479828  0.18986763    -0.06600
C3728       C  0.99196360  0.89510542  0.16246652     0.14300
C3729       C  0.99194634  0.87612021  0.13810967    -0.23400
H3730       H  0.99424270  0.92995237  0.13643510     0.15500
H3731       H  0.99139587  0.89647477  0.23228648     0.15600
C3732       C  0.99216452  0.94965530  0.23192542    -0.23400
H3733       H  0.99434891  0.88718040  0.11826928     0.05800
H3734       H  0.97266011  0.86513338  0.13724300     0.09000
H3735       H  0.00879480  0.86127426  0.13983326     0.09000
H3736       H  0.97368980  0.94514989  0.24395497     0.09000
H3737       H  0.99219439  0.97172516  0.22824912     0.09000
H3738       H  0.00986945  0.94464832  0.24482861     0.05800
C3739       C  0.90110483  0.99134638  0.23967320    -0.20000
C3740       C  0.90707614  0.00749149  0.21660270    -0.06600
C3741       C  0.88658056  0.02414475  0.20519375     0.14300
C3742       C  0.86082379  0.02429397  0.21719470    -0.20100
C3743       C  0.85461148  0.00769008  0.23985762    -0.06600
C3744       C  0.87516178  0.99115826  0.25142632     0.14300
C3745       C  0.87005540  0.97363157  0.27640925    -0.23400
H3746       H  0.91684977  0.97866884  0.24834304     0.15500
H3747       H  0.84503819  0.03653927  0.20796592     0.15600
C3748       C  0.89117206  0.04047536  0.17928224    -0.23400
H3749       H  0.88876094  0.96357912  0.28374773     0.05800
H3750       H  0.85564008  0.95739445  0.27144074     0.09000
H3751       H  0.86189546  0.98630562  0.29346817     0.09000
H3752       H  0.89917450  0.02707886  0.16272350     0.09000
H3753       H  0.90541295  0.05711902  0.18316087     0.09000
H3754       H  0.87228733  0.04999817  0.17172759     0.05800
C3755       C  0.97536404  0.07981811  0.17527389    -0.20000
C3756       C  0.99866667  0.06381867  0.17062986    -0.06600
C3757       C  0.02293033  0.07879631  0.16796737     0.14300
C3758       C  0.02403336  0.10623427  0.17711791    -0.20100
C3759       C  0.00117760  0.12040985  0.18720015    -0.06600
C3760       C  0.97620180  0.10713383  0.18443972     0.14300
C3761       C  0.95005545  0.12193912  0.18982433    -0.23400
H3762       H  0.95608541  0.07132066  0.17071073     0.15500
H3763       H  0.04301908  0.11672138  0.17600283     0.15600
C3764       C  0.04754720  0.06739129  0.15374148    -0.23400
H3765       H  0.93246843  0.10911894  0.18515678     0.05800
H3766       H  0.94881073  0.14041431  0.17667816     0.09000
H3767       H  0.94855046  0.12772997  0.21185571     0.09000
H3768       H  0.04490021  0.04629017  0.14656683     0.09000
H3769       H  0.06508181  0.06803994  0.16768072     0.09000
H3770       H  0.05211695  0.08000310  0.13532044     0.05800
loop_ 
_geom_bond_atom_site_label_1 
_geom_bond_atom_site_label_2 
_geom_bond_distance 
_geom_bond_site_symmetry_2 
_ccdc_geom_bond_type 
Zn1           O5   2.039   1_655  S
Zn1           O6   2.103       .  S
Zn1          O10   2.135       .  S
Zn1          O17   2.169       .  S
Zn2           O5   2.048   1_565  S
Zn2           O7   2.174       .  S
Zn2           O9   2.094       .  S
Zn2          O13   2.149       .  S
Zn3           O5   2.048   1_554  S
Zn3           O8   2.147       .  S
Zn3          O11   2.166       .  S
Zn3          O14   2.104       .  S
Zn4           O5   2.044   1_664  S
Zn4          O12   2.126       .  S
Zn4          O15   2.163       .  S
Zn4          O16   2.160       .  S
O6           C18   1.288   1_655  A
O7           C19   1.293   1_565  A
O8           C20   1.289   1_454  A
O9           C18   1.286   1_565  A
O10          C20   1.286       .  A
O11          C19   1.291   1_554  A
O12          C21   1.291   1_665  A
O13          C22   1.288       .  A
O14          C21   1.287       .  A
O15          C22   1.293   1_654  A
O16          C23   1.289   1_554  A
O17          C23   1.292   1_545  A
C18          N60   1.460       .  S
C19          N83   1.490       .  S
C20         N106   1.477       .  S
C21          N37   1.465   1_455  S
C22         N152   1.484       .  S
C23         N129   1.488       .  S
C24          C26   1.547   1_655  S
C24          C28   1.541       .  S
C24          C27   1.582       .  S
C24        C3724   1.589       .  S
C25          C29   1.543   1_655  S
C25          C31   1.558       .  S
C25          C30   1.569       .  S
C25        C3756   1.585       .  S
C26          C34   1.381       .  A
C26          C29   1.397   1_565  A
C27          C38   1.404       .  A
C27          C30   1.419   1_565  A
C28          C42   1.384       .  A
C28          C31   1.399   1_565  A
C29          C32   1.385       .  A
C30          C36   1.395   1_655  A
C31          C39   1.388       .  A
C32          N33   1.356       .  A
C32          H45   1.080       .  S
N33        C3708   1.442       .  S
N33          C34   1.359   1_545  A
C34          H35   1.082       .  S
C36          N37   1.366   1_455  A
C36          H46   1.082       .  S
N37          C38   1.363   1_545  A
C38          H44   1.075       .  S
C39          N40   1.355       .  A
C39          H41   1.078       .  S
N40        C3740   1.445       .  S
N40          C42   1.357   1_545  A
C42          H43   1.082       .  S
C47          C49   1.532       .  S
C47          C51   1.526   1_565  S
C47          C50   1.582   1_565  S
C47        C3679   1.607       .  S
C48          C52   1.532   1_545  S
C48          C54   1.530       .  S
C48          C53   1.583       .  S
C48        C3644   1.607       .  S
C49          C57   1.369       .  A
C49          C52   1.403   1_455  A
C50          C61   1.396   1_545  A
C50          C53   1.437   1_455  A
C51          C65   1.366       .  A
C51          C54   1.396   1_455  A
C52          C55   1.366       .  A
C53          C59   1.395       .  A
C54          C62   1.372       .  A
C55          N56   1.351       .  A
C55          H68   1.081       .  S
N56        C3695   1.424       .  S
N56          C57   1.355   1_655  A
C57          H58   1.083       .  S
C59          N60   1.363   1_655  A
C59          H69   1.077       .  S
N60          C61   1.365   1_545  A
C61          H67   1.080       .  S
C62          N63   1.355   1_655  A
C62          H64   1.083       .  S
N63        C3660   1.421       .  S
N63          C65   1.350       .  A
C65          H66   1.082       .  S
C70          C72   1.530   1_554  S
C70          C74   1.537       .  S
C70          C73   1.601   1_554  S
C70        C3580   1.615       .  S
C71          C75   1.522   1_554  S
C71          C77   1.541       .  S
C71          C76   1.604       .  S
C71        C3599   1.616       .  S
C72          C80   1.377       .  A
C72          C75   1.387   1_565  A
C73          C84   1.410       .  A
C73          C76   1.442   1_566  A
C74          C88   1.372       .  A
C74          C77   1.402   1_565  A
C75          C78   1.368       .  A
C76          C82   1.409       .  A
C77          C85   1.380       .  A
C78          N79   1.349       .  A
C78          H91   1.083       .  S
N79        C3612   1.430       .  S
N79          C80   1.359   1_545  A
C80          H81   1.083       .  S
C82          N83   1.377   1_554  A
C82          H92   1.081       .  S
N83          C84   1.377   1_545  A
C84          H90   1.081       .  S
C85          N86   1.358   1_545  A
C85          H87   1.082       .  S
N86        C3631   1.431       .  S
N86          C88   1.352       .  A
C88          H89   1.082       .  S
C93          C95   1.555   1_654  S
C93          C97   1.549   1_554  S
C93          C96   1.579   1_554  S
C93        C3564   1.592       .  S
C94          C98   1.521   1_655  S
C94         C100   1.524       .  S
C94          C99   1.590       .  S
C94        C3551   1.589       .  S
C95         C103   1.388   1_556  A
C95          C98   1.395       .  A
C96         C107   1.397   1_556  A
C96          C99   1.427       .  A
C97         C111   1.383   1_556  A
C97         C100   1.392       .  A
C98         C101   1.367       .  A
C99         C105   1.408       .  A
C100        C108   1.368       .  A
C101        N102   1.346       .  A
C101        H114   1.082       .  S
N102       C3532   1.426       .  S
N102        C103   1.353   1_556  A
C103        H104   1.079       .  S
C105        N106   1.376       .  A
C105        H115   1.081       .  S
N106        C107   1.369   1_556  A
C107        H113   1.082       .  S
C108        N109   1.351       .  A
C108        H110   1.082       .  S
N109       C3516   1.440       .  S
N109        C111   1.361   1_556  A
C111        H112   1.075       .  S
C116        C118   1.526   1_554  S
C116        C120   1.543       .  S
C116        C119   1.618       .  S
C116       C3455   1.630       .  S
C117        C121   1.537   1_554  S
C117        C123   1.545       .  S
C117        C122   1.598       .  S
C117       C3471   1.624       .  S
C118        C126   1.366       .  A
C118        C121   1.396   1_545  A
C119        C130   1.418       .  A
C119        C122   1.442   1_545  A
C120        C134   1.383       .  A
C120        C123   1.403   1_545  A
C121        C124   1.383       .  A
C122        C128   1.413   1_554  A
C123        C131   1.376       .  A
C124        N125   1.361   1_565  A
C124        H137   1.083       .  S
N125       C3484   1.433       .  S
N125        C126   1.348       .  A
C126        H127   1.083       .  S
C128        N129   1.372       .  A
C128        H138   1.081       .  S
N129        C130   1.369   1_566  A
C130        H136   1.070       .  S
C131        N132   1.351       .  A
C131        H133   1.082       .  S
N132       C3503   1.436       .  S
N132        C134   1.359   1_565  A
C134        H135   1.082       .  S
C139        C141   1.570       .  S
C139        C143   1.558   1_455  S
C139        C142   1.600       .  S
C139       C3420   1.614       .  S
C140        C144   1.526   1_654  S
C140        C146   1.539   1_554  S
C140        C145   1.558   1_554  S
C140       C3436   1.585       .  S
C141        C149   1.395       .  A
C141        C144   1.405       .  A
C142        C153   1.417       .  A
C142        C145   1.416   1_455  A
C143        C157   1.389       .  A
C143        C146   1.404       .  A
C144        C147   1.368   1_556  A
C145        C151   1.393   1_556  A
C146        C154   1.376       .  A
C147        N148   1.346   1_554  A
C147        H160   1.080       .  S
N148       C3404   1.437       .  S
N148        C149   1.356       .  A
C149        H150   1.075       .  S
C151        N152   1.365   1_654  A
C151        H161   1.082       .  S
N152        C153   1.383       .  A
C153        H159   1.082       .  S
C154        N155   1.344       .  A
C154        H156   1.078   1_556  S
N155       C3388   1.433       .  S
N155        C157   1.358       .  A
C157        H158   1.079       .  S
Zn162       O166   1.987       .  S
Zn162       O167   2.129       .  S
Zn162       O171   2.112       .  S
Zn162       O178   1.960       .  S
Zn163       O166   1.973   1_455  S
Zn163       O168   1.984       .  S
Zn163       O170   2.055       .  S
Zn163       O174   2.065       .  S
Zn164       O166   1.974   1_455  S
Zn164       O169   2.065       .  S
Zn164       O172   2.003       .  S
Zn164       O175   2.018       .  S
Zn165       O166   2.010       .  S
Zn165       O173   2.192       .  S
Zn165       O176   2.229       .  S
Zn165       O177   2.052       .  S
O167        C179   1.285       .  A
O168        C180   1.275       .  A
O169        C181   1.274       .  A
O170        C179   1.275   1_455  A
O171        C181   1.282   1_655  A
O172        C180   1.277       .  A
O173        C182   1.295       .  A
O174        C183   1.277   1_455  A
O175        C182   1.273   1_455  A
O176        C183   1.299       .  A
O177        C184   1.283       .  A
O178        C184   1.273       .  A
C179       C3372   1.526       .  S
C180       C3340   1.472       .  S
C181       C3759   1.528       .  S
C182       C3567   1.539       .  S
C183       C3356   1.557       .  S
C184       C3324   1.477       .  S
N185        C190   1.365       .  A
N185        C189   1.352       .  A
N185        H217   1.038       .  S
N186        C193   1.351       .  A
N186        C194   1.362       .  A
N187        C192   1.351       .  A
N187        C191   1.363       .  A
N187        H218   1.038       .  S
N188        C195   1.360       .  A
N188        C196   1.351       .  A
C189        C197   1.391       .  A
C189        C205   1.425       .  A
C190        C206   1.425       .  A
C190        C198   1.384       .  A
C191        C199   1.382       .  A
C191        C208   1.420   1_655  A
C192        C207   1.424       .  A
C192        C200   1.392       .  A
C193        C205   1.425       .  A
C193        C201   1.391       .  A
C194        C208   1.422       .  A
C194        C202   1.382       .  A
C195        C203   1.383       .  A
C195        C206   1.422   1_655  A
C196        C204   1.389       .  A
C196        C207   1.423       .  A
C197        C198   1.378       .  A
C197        H209   1.082       .  S
C198        H210   1.082       .  S
C199        C200   1.375       .  A
C199        H211   1.082       .  S
C200        H212   1.082       .  S
C201        C202   1.377       .  A
C201        H213   1.082       .  S
C202        H214   1.082       .  S
C203        C204   1.378       .  A
C203        H215   1.082       .  S
C204        H216   1.082       .  S
C205       C3295   1.484       .  S
C206       C3375   1.526   1_455  S
C207       C3276   1.483       .  S
C208       C3308   1.525       .  S
Zn219       O223   1.897       .  S
Zn219       O224   1.955       .  S
Zn219       O228   2.049       .  S
Zn219       O235   1.956       .  S
Zn220       O223   1.927   1_655  S
Zn220       O225   2.006       .  S
Zn220       O227   2.013       .  S
Zn220       O231   2.072       .  S
Zn221       O223   1.953   1_655  S
Zn221       O226   2.154       .  S
Zn221       O229   1.988       .  S
Zn221       O232   2.110       .  S
Zn222       O223   1.928       .  S
Zn222       O230   1.981       .  S
Zn222       O233   2.102       .  S
Zn222       O234   2.014       .  S
O224        C236   1.269       .  A
O225        C237   1.277       .  A
O226        C238   1.292   1_655  A
O227        C236   1.274   1_655  A
O228        C238   1.272       .  A
O229        C237   1.275       .  A
O230        C239   1.272       .  A
O231        C240   1.279   1_655  A
O232        C239   1.288   1_655  A
O233        C240   1.283       .  A
O234        C241   1.278       .  A
O235        C241   1.267       .  A
C236       C3663   1.460       .  S
C237       C3244   1.473       .  S
C238       C3548   1.536       .  S
C239       C3263   1.502       .  S
C240       C3311   1.525       .  S
C241       C3231   1.475       .  S
N242        C247   1.364       .  A
N242        C246   1.371       .  A
N242        H274   1.038       .  S
N243        C250   1.368       .  A
N243        C251   1.361       .  A
N244        C249   1.370       .  A
N244        C248   1.362       .  A
N244        H275   1.032       .  S
N245        C252   1.361       .  A
N245        C253   1.368       .  A
C246        C254   1.383       .  A
C246        C262   1.439   1_455  A
C247        C263   1.447       .  A
C247        C255   1.393       .  A
C248        C256   1.390       .  A
C248        C265   1.444       .  A
C249        C264   1.447       .  A
C249        C257   1.387       .  A
C250        C262   1.437       .  A
C250        C258   1.384       .  A
C251        C265   1.441       .  A
C251        C259   1.389       .  A
C252        C260   1.389       .  A
C252        C263   1.444       .  A
C253        C261   1.386       .  A
C253        C264   1.444   1_455  A
C254        C255   1.383       .  A
C254        H266   1.082       .  S
C255        H267   1.082       .  S
C256        C257   1.383       .  A
C256        H268   1.082       .  S
C257        H269   1.081       .  S
C258        C259   1.383       .  A
C258        H270   1.082       .  S
C259        H271   1.082       .  S
C260        C261   1.386       .  A
C260        H272   1.082       .  S
C261        H273   1.082       .  S
C262       C3359   1.555       .  S
C263       C3180   1.530       .  S
C264       C3212   1.557       .  S
C265       C3196   1.525       .  S
Zn276       O280   1.974       .  S
Zn276       O281   2.003       .  S
Zn276       O285   2.068       .  S
Zn276       O292   2.075       .  S
Zn277       O280   1.977       .  S
Zn277       O282   2.053       .  S
Zn277       O284   1.991       .  S
Zn277       O288   2.000       .  S
Zn278       O280   2.002   1_455  S
Zn278       O283   2.123   1_455  S
Zn278       O286   2.135       .  S
Zn278       O289   1.989       .  S
Zn279       O280   2.014   1_455  S
Zn279       O287   2.018       .  S
Zn279       O290   2.172       .  S
Zn279       O291   2.196       .  S
O281        C293   1.278       .  A
O282        C294   1.274       .  A
O283        C295   1.285       .  A
O284        C293   1.274       .  A
O285        C295   1.278       .  A
O286        C294   1.285   1_455  A
O287        C296   1.279       .  A
O288        C297   1.268       .  A
O289        C296   1.276       .  A
O290        C297   1.292   1_455  A
O291        C298   1.293   1_455  A
O292        C298   1.278       .  A
C293       C3148   1.465       .  S
C294       C3727   1.526       .  S
C295       C3164   1.534       .  S
C296       C3132   1.469       .  S
C297       C3439   1.519       .  S
C298       C3215   1.555       .  S
N299        C304   1.364       .  A
N299        C303   1.355       .  A
N299        H331   1.035       .  S
N300        C307   1.352       .  A
N300        C308   1.360       .  A
N301        C306   1.353       .  A
N301        C305   1.364       .  A
N301        H332   1.037       .  S
N302        C309   1.363       .  A
N302        C310   1.356       .  A
C303        C311   1.389       .  A
C303        C319   1.427       .  A
C304        C320   1.430   1_455  A
C304        C312   1.386       .  A
C305        C313   1.383       .  A
C305        C322   1.424       .  A
C306        C321   1.428       .  A
C306        C314   1.392       .  A
C307        C319   1.425       .  A
C307        C315   1.391       .  A
C308        C322   1.419   1_455  A
C308        C316   1.382       .  A
C309        C317   1.384       .  A
C309        C320   1.430       .  A
C310        C318   1.389       .  A
C310        C321   1.431       .  A
C311        C312   1.380       .  A
C311        H323   1.082       .  S
C312        H324   1.082       .  S
C313        C314   1.377       .  A
C313        H325   1.082       .  S
C314        H326   1.082       .  S
C315        C316   1.372       .  A
C315        H327   1.082       .  S
C316        H328   1.082       .  S
C317        C318   1.380       .  A
C317        H329   1.082       .  S
C318        H330   1.082       .  S
C319       C3087   1.490       .  S
C320       C3167   1.529       .  S
C321       C3100   1.496       .  S
C322       C3119   1.520       .  S
Zn333       O337   1.943       .  S
Zn333       O338   1.961       .  S
Zn333       O342   2.089       .  S
Zn333       O349   1.975       .  S
Zn334       O337   1.934       .  S
Zn334       O339   1.994       .  S
Zn334       O341   1.989       .  S
Zn334       O345   2.084       .  S
Zn335       O337   1.930   1_655  S
Zn335       O340   2.062       .  S
Zn335       O343   1.969       .  S
Zn335       O346   1.959       .  S
Zn336       O337   1.982   1_655  S
Zn336       O344   2.007       .  S
Zn336       O347   2.196       .  S
Zn336       O348   2.117       .  S
O338        C350   1.270       .  A
O339        C351   1.273       .  A
O340        C352   1.274   1_655  A
O341        C350   1.274       .  A
O342        C352   1.277       .  A
O343        C351   1.270   1_655  A
O344        C353   1.275       .  A
O345        C354   1.277       .  A
O346        C353   1.272       .  A
O347        C354   1.293   1_655  A
O348        C355   1.289   1_655  A
O349        C355   1.273       .  A
C350       C3055   1.450       .  S
C351       C3692   1.448   1_455  S
C352       C3116   1.521       .  S
C353       C3039   1.470       .  S
C354       C3423   1.547       .  S
C355       C3068   1.501       .  S
N356        C361   1.374       .  A
N356        C360   1.357       .  A
N356        H388   1.039       .  S
N357        C364   1.355       .  A
N357        C365   1.370       .  A
N358        C363   1.356       .  A
N358        C362   1.373       .  A
N358        H389   1.039       .  S
N359        C366   1.370       .  A
N359        C367   1.356       .  A
C360        C368   1.394       .  A
C360        C376   1.441       .  A
C361        C377   1.438       .  A
C361        C369   1.382       .  A
C362        C370   1.382       .  A
C362        C379   1.435       .  A
C363        C378   1.438   1_655  A
C363        C371   1.393       .  A
C364        C376   1.439   1_655  A
C364        C372   1.393       .  A
C365        C379   1.435       .  A
C365        C373   1.381       .  A
C366        C374   1.382       .  A
C366        C377   1.436       .  A
C367        C375   1.392       .  A
C367        C378   1.437       .  A
C368        C369   1.383       .  A
C368        H380   1.082       .  S
C369        H381   1.082       .  S
C370        C371   1.382       .  A
C370        H382   1.082       .  S
C371        H383   1.082       .  S
C372        C373   1.381       .  A
C372        H384   1.082       .  S
C373        H385   1.082       .  S
C374        C375   1.381       .  A
C374        H386   1.082       .  S
C375        H387   1.082       .  S
C376       C3260   1.499       .  S
C377       C3004   1.565       .  S
C378       C3071   1.498   1_455  S
C379       C3020   1.559       .  S
Zn390       O394   1.979       .  S
Zn390       O395   2.066       .  S
Zn390       O399   2.100       .  S
Zn390       O406   1.981       .  S
Zn391       O394   2.005       .  S
Zn391       O396   1.972       .  S
Zn391       O398   2.129       .  S
Zn391       O402   2.136       .  S
Zn392       O394   1.993       .  S
Zn392       O397   2.196       .  S
Zn392       O400   2.007       .  S
Zn392       O403   2.131       .  S
Zn393       O394   1.985       .  S
Zn393       O401   2.049       .  S
Zn393       O404   2.067       .  S
Zn393       O405   2.029       .  S
O395        C407   1.278       .  A
O396        C408   1.274       .  A
O397        C409   1.293       .  A
O398        C407   1.286       .  A
O399        C409   1.281       .  A
O400        C408   1.278       .  A
O401        C410   1.277       .  A
O402        C411   1.285       .  A
O403        C410   1.288       .  A
O404        C411   1.274       .  A
O405        C412   1.281       .  A
O406        C412   1.276       .  A
C407       C2988   1.536       .  S
C408       C2956   1.449       .  S
C409       C3023   1.562       .  S
C410       C2924   1.532       .  S
C411       C2940   1.534       .  S
C412       C2972   1.474       .  S
N413        C418   1.364       .  A
N413        C417   1.369       .  A
N413        H445   1.031       .  S
N414        C421   1.368       .  A
N414        C422   1.364       .  A
N415        C420   1.372       .  A
N415        C419   1.366       .  A
N415        H446   1.029       .  S
N416        C423   1.363       .  A
N416        C424   1.367       .  A
C417        C425   1.387       .  A
C417        C433   1.441   1_554  A
C418        C434   1.439       .  A
C418        C426   1.388       .  A
C419        C427   1.389       .  A
C419        C436   1.446       .  A
C420        C435   1.448       .  A
C420        C428   1.387       .  A
C421        C433   1.440       .  A
C421        C429   1.384       .  A
C422        C436   1.443       .  A
C422        C430   1.390       .  A
C423        C431   1.388       .  A
C423        C434   1.440       .  A
C424        C432   1.386       .  A
C424        C435   1.441   1_554  A
C425        C426   1.380       .  A
C425        H437   1.082       .  S
C426        H438   1.082       .  S
C427        C428   1.387       .  A
C427        H439   1.082       .  S
C428        H440   1.082       .  S
C429        C430   1.380       .  A
C429        H441   1.082       .  S
C430        H442   1.082       .  S
C431        C432   1.381       .  A
C431        H443   1.082       .  S
C432        H444   1.082       .  S
C433       C2908   1.547       .  S
C434       C2876   1.526       .  S
C435       C2892   1.550       .  S
C436       C2991   1.532       .  S
Zn447       O451   2.012   1_556  S
Zn447       O452   2.004       .  S
Zn447       O456   2.110   1_556  S
Zn447       O463   2.186   1_556  S
Zn448       O451   1.973   1_556  S
Zn448       O453   2.136       .  S
Zn448       O455   1.970       .  S
Zn448       O459   2.005       .  S
Zn449       O451   1.963       .  S
Zn449       O454   2.012       .  S
Zn449       O457   2.096       .  S
Zn449       O460   1.958       .  S
Zn450       O451   1.965       .  S
Zn450       O458   1.994       .  S
Zn450       O461   1.984       .  S
Zn450       O462   2.129       .  S
O452        C464   1.275       .  A
O453        C465   1.280       .  A
O454        C466   1.276       .  A
O455        C464   1.276       .  A
O456        C466   1.287       .  A
O457        C465   1.275   1_554  A
O458        C467   1.275       .  A
O459        C468   1.273       .  A
O460        C467   1.273       .  A
O461        C468   1.270   1_554  A
O462        C469   1.282       .  A
O463        C469   1.291       .  A
C464       C2844   1.448       .  S
C465       C2911   1.545       .  S
C466       C2860   1.512       .  S
C467       C2828   1.472       .  S
C468       C3519   1.458       .  S
C469       C3452   1.561       .  S
Zn470       O474   1.999       .  S
Zn470       O475   2.153       .  S
Zn470       O479   2.020       .  S
Zn470       O486   2.067       .  S
Zn471       O474   1.953   1_556  S
Zn471       O476   1.956       .  S
Zn471       O478   2.090       .  S
Zn471       O482   1.923       .  S
Zn472       O474   2.002       .  S
Zn472       O477   1.977       .  S
Zn472       O480   2.153       .  S
Zn472       O483   2.209       .  S
Zn473       O474   1.952   1_556  S
Zn473       O481   2.107       .  S
Zn473       O484   1.975       .  S
Zn473       O485   1.941       .  S
O475        C487   1.283       .  A
O476        C488   1.265   1_556  A
O477        C489   1.275       .  A
O478        C487   1.274   1_556  A
O479        C489   1.282       .  A
O480        C488   1.291       .  A
O481        C490   1.278   1_556  A
O482        C491   1.266       .  A
O483        C490   1.294       .  A
O484        C491   1.273       .  A
O485        C492   1.268       .  A
O486        C492   1.279   1_554  A
C487       C2895   1.547       .  S
C488       C2812   1.516       .  S
C489       C2780   1.448       .  S
C490       C3468   1.571       .  S
C491       C2796   1.433       .  S
C492       C3391   1.482       .  S
N493        C498   1.367       .  A
N493        C497   1.358       .  A
N493        H525   1.036       .  S
N494        C501   1.358       .  A
N494        C502   1.366       .  A
N495        C500   1.359       .  A
N495        C499   1.368       .  A
N495        H526   1.035       .  S
N496        C503   1.363       .  A
N496        C504   1.355       .  A
C497        C505   1.392       .  A
C497        C513   1.437   1_556  A
C498        C514   1.433       .  A
C498        C506   1.384       .  A
C499        C507   1.386       .  A
C499        C516   1.439       .  A
C500        C515   1.437       .  A
C500        C508   1.389       .  A
C501        C513   1.436       .  A
C501        C509   1.389       .  A
C502        C516   1.434       .  A
C502        C510   1.384       .  A
C503        C511   1.383       .  A
C503        C514   1.428       .  A
C504        C512   1.390       .  A
C504        C515   1.432   1_556  A
C505        C506   1.383       .  A
C505        H517   1.082       .  S
C506        H518   1.082       .  S
C507        C508   1.383       .  A
C507        H519   1.082       .  S
C508        H520   1.082       .  S
C509        C510   1.380       .  A
C509        H521   1.082       .  S
C510        H522   1.082       .  S
C511        C512   1.376       .  A
C511        H523   1.082       .  S
C512        H524   1.082       .  S
C513       C2815   1.508       .  S
C514       C2748   1.535       .  S
C515       C2764   1.507       .  S
C516       C2735   1.545       .  S
Zn527       O531   1.996   1_554  S
Zn527       O532   2.115       .  S
Zn527       O536   1.958       .  S
Zn527       O543   2.185       .  S
Zn528       O531   1.955       .  S
Zn528       O533   2.105       .  S
Zn528       O535   2.002       .  S
Zn528       O539   1.949       .  S
Zn529       O531   1.968   1_554  S
Zn529       O534   1.990       .  S
Zn529       O537   2.135       .  S
Zn529       O540   1.995       .  S
Zn530       O531   1.962       .  S
Zn530       O538   2.004       .  S
Zn530       O541   1.999       .  S
Zn530       O542   2.128       .  S
O532        C544   1.287       .  A
O533        C545   1.277       .  A
O534        C546   1.278       .  A
O535        C544   1.274   1_556  A
O536        C546   1.271       .  A
O537        C545   1.281   1_554  A
O538        C547   1.273       .  A
O539        C548   1.272       .  A
O540        C547   1.272   1_554  A
O541        C548   1.278       .  A
O542        C549   1.280       .  A
O543        C549   1.292   1_554  A
C544       C2767   1.510       .  S
C545       C2716   1.544       .  S
C546       C2684   1.443       .  S
C547       C3407   1.457       .  S
C548       C2700   1.453       .  S
C549       C3583   1.566       .  S
N550        C555   1.365       .  A
N550        C554   1.370       .  A
N550        H582   1.031       .  S
N551        C558   1.366       .  A
N551        C559   1.363       .  A
N552        C557   1.367       .  A
N552        C556   1.362       .  A
N552        H583   1.030       .  S
N553        C560   1.362       .  A
N553        C561   1.365       .  A
C554        C562   1.388       .  A
C554        C570   1.446   1_554  A
C555        C571   1.444       .  A
C555        C563   1.388       .  A
C556        C564   1.389       .  A
C556        C573   1.441       .  A
C557        C572   1.440       .  A
C557        C565   1.387       .  A
C558        C570   1.443       .  A
C558        C566   1.386       .  A
C559        C573   1.442       .  A
C559        C567   1.388       .  A
C560        C568   1.388       .  A
C560        C571   1.439       .  A
C561        C569   1.386       .  A
C561        C572   1.438   1_554  A
C562        C563   1.384       .  A
C562        H574   1.082       .  S
C563        H575   1.082       .  S
C564        C565   1.382       .  A
C564        H576   1.082       .  S
C565        H577   1.082       .  S
C566        C567   1.382       .  A
C566        H578   1.082       .  S
C567        H579   1.082       .  S
C568        C569   1.378       .  A
C568        H580   1.082       .  S
C569        H581   1.082       .  S
C570       C2719   1.547       .  S
C571       C2636   1.528       .  S
C572       C2668   1.539       .  S
C573       C2652   1.525       .  S
Zn584       O588   1.945       .  S
Zn584       O589   2.025       .  S
Zn584       O593   1.993       .  S
Zn584       O600   2.126       .  S
Zn585       O588   1.953       .  S
Zn585       O590   2.106       .  S
Zn585       O592   1.967       .  S
Zn585       O596   1.990   1_556  S
Zn586       O588   1.959   1_554  S
Zn586       O591   1.997       .  S
Zn586       O594   2.101   1_554  S
Zn586       O597   1.961       .  S
Zn587       O588   1.986   1_554  S
Zn587       O595   2.010       .  S
Zn587       O598   2.118       .  S
Zn587       O599   2.204       .  S
O589        C601   1.282       .  A
O590        C602   1.278       .  A
O591        C603   1.274   1_554  A
O592        C601   1.270       .  A
O593        C603   1.276       .  A
O594        C602   1.278       .  A
O595        C604   1.278       .  A
O596        C605   1.273       .  A
O597        C604   1.272       .  A
O598        C605   1.288       .  A
O599        C606   1.295       .  A
O600        C606   1.281   1_556  A
C601       C2588   1.481       .  S
C602       C2671   1.542       .  S
C603       C3535   1.472       .  S
C604       C2604   1.461       .  S
C605       C2623   1.498       .  S
C606       C3596   1.566       .  S
N607        C612   1.358       .  A
N607        C611   1.366       .  A
N607        H639   1.038   1_556  S
N608        C615   1.364       .  A
N608        C616   1.357       .  A
N609        C614   1.366       .  A
N609        C613   1.359       .  A
N609        H640   1.039       .  S
N610        C617   1.359       .  A
N610        C618   1.366       .  A
C611        C619   1.384       .  A
C611        C627   1.432       .  A
C612        C628   1.433   1_556  A
C612        C620   1.391       .  A
C613        C621   1.390       .  A
C613        C630   1.433       .  A
C614        C629   1.433       .  A
C614        C622   1.385       .  A
C615        C627   1.432       .  A
C615        C623   1.385       .  A
C616        C630   1.431   1_556  A
C616        C624   1.389       .  A
C617        C625   1.388       .  A
C617        C628   1.434       .  A
C618        C626   1.385       .  A
C618        C629   1.436       .  A
C619        C620   1.381       .  A
C619        H631   1.082       .  S
C620        H632   1.082       .  S
C621        C622   1.382       .  A
C621        H633   1.082       .  S
C622        H634   1.082       .  S
C623        C624   1.379       .  A
C623        H635   1.082       .  S
C624        H636   1.082       .  S
C625        C626   1.380       .  A
C625        H637   1.082       .  S
C626        H638   1.082       .  S
C627       C2575   1.541       .  S
C628       C2863   1.509       .  S
C629       C2556   1.546       .  S
C630       C2620   1.508       .  S
Zn641       O645   1.933       .  S
Zn641       O646   1.993       .  S
Zn641       O650   1.970       .  S
Zn641       O657   2.099       .  S
Zn642       O645   1.921       .  S
Zn642       O647   2.073       .  S
Zn642       O649   1.972       .  S
Zn642       O653   1.980       .  S
Zn643       O645   1.971       .  S
Zn643       O648   2.103       .  S
Zn643       O651   2.162       .  S
Zn643       O654   1.969       .  S
Zn644       O645   1.940       .  S
Zn644       O652   1.986       .  S
Zn644       O655   2.001       .  S
Zn644       O656   2.103       .  S
O646        C658   1.273       .  A
O647        C659   1.275       .  A
O648        C660   1.287       .  A
O649        C658   1.274       .  A
O650        C660   1.269       .  A
O651        C659   1.289       .  A
O652        C661   1.274       .  A
O653        C662   1.273       .  A
O654        C661   1.272       .  A
O655        C662   1.275       .  A
O656        C663   1.280       .  A
O657        C663   1.280       .  A
C658       C2508   1.477       .  S
C659       C2479   1.544       .  S
C660       C2540   1.499       .  S
C661       C2524   1.446       .  S
C662       C2492   1.466       .  S
C663       C2751   1.536       .  S
Zn664       O668   1.984       .  S
Zn664       O669   2.000       .  S
Zn664       O673   2.062       .  S
Zn664       O680   2.103       .  S
Zn665       O668   1.970       .  S
Zn665       O670   2.064       .  S
Zn665       O672   1.972       .  S
Zn665       O676   2.001       .  S
Zn666       O668   2.004       .  S
Zn666       O671   2.110       .  S
Zn666       O674   2.137       .  S
Zn666       O677   1.961       .  S
Zn667       O668   2.010       .  S
Zn667       O675   2.018       .  S
Zn667       O678   2.171       .  S
Zn667       O679   2.211       .  S
O669        C681   1.277       .  A
O670        C682   1.273       .  A
O671        C683   1.283       .  A
O672        C681   1.274       .  A
O673        C683   1.277       .  A
O674        C682   1.283       .  A
O675        C684   1.280       .  A
O676        C685   1.268       .  A
O677        C684   1.273       .  A
O678        C685   1.293       .  A
O679        C686   1.295       .  A
O680        C686   1.280       .  A
C681       C2463   1.449       .  S
C682       C2431   1.527       .  S
C683       C2655   1.523       .  S
C684       C2444   1.442       .  S
C685       C2415   1.534       .  S
C686       C3007   1.570       .  S
Zn687       O691   1.942       .  S
Zn687       O692   2.084       .  S
Zn687       O696   2.009       .  S
Zn687       O703   2.006       .  S
Zn688       O691   1.982       .  S
Zn688       O693   1.976       .  S
Zn688       O695   2.142       .  S
Zn688       O699   2.091       .  S
Zn689       O691   1.947       .  S
Zn689       O694   2.009       .  S
Zn689       O697   2.014       .  S
Zn689       O700   2.117       .  S
Zn690       O691   1.938       .  S
Zn690       O698   2.090       .  S
Zn690       O701   1.993       .  S
Zn690       O702   1.974       .  S
O692        C704   1.277       .  A
O693        C705   1.271       .  A
O694        C706   1.276       .  A
O695        C704   1.286       .  A
O696        C706   1.276       .  A
O697        C705   1.278       .  A
O698        C707   1.278       .  A
O699        C708   1.286       .  A
O700        C707   1.282       .  A
O701        C708   1.273       .  A
O702        C709   1.270       .  A
O703        C709   1.277       .  A
C704       C2332   1.531       .  S
C705       C2364   1.456       .  S
C706       C2348   1.465       .  S
C707       C2572   1.540       .  S
C708       C2396   1.492       .  S
C709       C2380   1.479       .  S
Zn710       O714   1.958       .  S
Zn710       O715   2.015       .  S
Zn710       O719   1.962       .  S
Zn710       O726   2.033       .  S
Zn711       O714   2.003       .  S
Zn711       O716   2.173       .  S
Zn711       O718   2.143       .  S
Zn711       O722   1.985       .  S
Zn712       O714   1.973       .  S
Zn712       O717   2.004       .  S
Zn712       O720   2.062       .  S
Zn712       O723   2.085       .  S
Zn713       O714   1.991       .  S
Zn713       O721   2.149       .  S
Zn713       O724   1.995       .  S
Zn713       O725   2.145       .  S
O715        C727   1.269       .  A
O716        C728   1.291       .  A
O717        C729   1.278       .  A
O718        C727   1.287       .  A
O719        C729   1.271       .  A
O720        C728   1.276       .  A
O721        C730   1.289       .  A
O722        C731   1.276       .  A
O723        C730   1.282       .  A
O724        C731   1.276       .  A
O725        C732   1.287       .  A
O726        C732   1.273       .  A
C727       C2271   1.520       .  S
C728       C2559   1.549       .  S
C729       C2300   1.463       .  S
C730       C2316   1.544       .  S
C731       C2284   1.451       .  S
C732       C2252   1.522       .  S
Zn733       O737   1.943       .  S
Zn733       O738   2.002       .  S
Zn733       O742   2.082       .  S
Zn733       O749   1.980       .  S
Zn734       O737   1.957       .  S
Zn734       O739   1.947       .  S
Zn734       O741   1.997       .  S
Zn734       O745   2.065       .  S
Zn735       O737   1.997       .  S
Zn735       O740   2.201       .  S
Zn735       O743   1.982       .  S
Zn735       O746   2.158       .  S
Zn736       O737   1.959       .  S
Zn736       O744   2.013       .  S
Zn736       O747   2.109       .  S
Zn736       O748   1.998       .  S
O738        C750   1.274       .  A
O739        C751   1.271       .  A
O740        C752   1.295       .  A
O741        C750   1.270       .  A
O742        C752   1.275       .  A
O743        C751   1.274       .  A
O744        C753   1.273       .  A
O745        C754   1.274       .  A
O746        C753   1.292       .  A
O747        C754   1.280       .  A
O748        C755   1.279       .  A
O749        C755   1.273       .  A
C750       C2204   1.466       .  S
C751       C2239   1.447       .  S
C752       C2188   1.559       .  S
C753       C3199   1.517       .  S
C754       C2879   1.522       .  S
C755       C2220   1.478       .  S
Zn756       O760   1.970       .  S
Zn756       O761   2.060       .  S
Zn756       O765   1.960       .  S
Zn756       O772   2.054       .  S
Zn757       O760   1.995       .  S
Zn757       O762   2.129       .  S
Zn757       O764   2.158       .  S
Zn757       O768   2.002       .  S
Zn758       O760   1.976       .  S
Zn758       O763   2.019       .  S
Zn758       O766   2.052       .  S
Zn758       O769   2.049       .  S
Zn759       O760   2.007       .  S
Zn759       O767   2.179       .  S
Zn759       O770   2.022       .  S
Zn759       O771   2.194       .  S
O761        C773   1.275       .  A
O762        C774   1.286       .  A
O763        C775   1.278       .  A
O764        C773   1.289       .  A
O765        C775   1.272       .  A
O766        C774   1.276       .  A
O767        C776   1.292       .  A
O768        C777   1.278       .  A
O769        C776   1.275       .  A
O770        C777   1.280       .  A
O771        C778   1.294       .  A
O772        C778   1.276       .  A
C773       C2172   1.544       .  S
C774       C2108   1.520       .  S
C775       C2156   1.479       .  S
C776       C2124   1.537       .  S
C777       C2140   1.467       .  S
C778       C2732   1.548       .  S
Zn779       O783   1.953       .  S
Zn779       O784   2.097       .  S
Zn779       O788   2.001       .  S
Zn779       O795   2.001       .  S
Zn780       O783   1.994       .  S
Zn780       O785   2.178       .  S
Zn780       O787   2.207       .  S
Zn780       O791   2.012       .  S
Zn781       O783   1.944       .  S
Zn781       O786   1.929       .  S
Zn781       O789   1.983       .  S
Zn781       O792   2.051       .  S
Zn782       O783   1.954       .  S
Zn782       O790   2.123       .  S
Zn782       O793   1.991       .  S
Zn782       O794   1.998       .  S
O784        C796   1.278       .  A
O785        C797   1.295       .  A
O786        C798   1.266       .  A
O787        C796   1.297       .  A
O788        C798   1.277       .  A
O789        C797   1.270       .  A
O790        C799   1.280       .  A
O791        C800   1.277       .  A
O792        C799   1.271       .  A
O793        C800   1.277       .  A
O794        C801   1.273       .  A
O795        C801   1.272       .  A
C796       C2044   1.562       .  S
C797       C3183   1.514       .  S
C798       C2079   1.444       .  S
C799       C2639   1.526       .  S
C800       C2092   1.453       .  S
C801       C2060   1.459       .  S
N802        C807   1.356       .  A
N802        C806   1.371       .  A
N802        H834   1.036       .  S
N803        C810   1.366       .  A
N803        C811   1.356       .  A
N804        C809   1.368       .  A
N804        C808   1.355       .  A
N804        H835   1.038       .  S
N805        C812   1.355       .  A
N805        C813   1.366       .  A
C806        C814   1.383       .  A
C806        C822   1.435       .  A
C807        C823   1.437       .  A
C807        C815   1.392       .  A
C808        C816   1.393       .  A
C808        C825   1.433       .  A
C809        C824   1.429       .  A
C809        C817   1.382       .  A
C810        C822   1.433   1_545  A
C810        C818   1.383       .  A
C811        C825   1.434       .  A
C811        C819   1.391       .  A
C812        C820   1.392       .  A
C812        C823   1.434       .  A
C813        C821   1.382       .  A
C813        C824   1.429   1_565  A
C814        C815   1.382       .  A
C814        H826   1.082       .  S
C815        H827   1.082       .  S
C816        C817   1.379       .  A
C816        H828   1.082       .  S
C817        H829   1.082       .  S
C818        C819   1.380       .  A
C818        H830   1.082       .  S
C819        H831   1.082       .  S
C820        C821   1.378       .  A
C820        H832   1.082       .  S
C821        H833   1.082       .  S
C822       C2028   1.549       .  S
C823       C2543   1.498       .  S
C824       C2012   1.544       .  S
C825       C2399   1.499       .  S
Zn836       O840   1.972   1_545  S
Zn836       O841   2.123       .  S
Zn836       O845   2.016       .  S
Zn836       O852   1.994       .  S
Zn837       O840   1.995       .  S
Zn837       O842   2.063       .  S
Zn837       O844   2.152       .  S
Zn837       O848   2.010       .  S
Zn838       O840   1.970   1_545  S
Zn838       O843   1.988       .  S
Zn838       O846   1.971   1_545  S
Zn838       O849   2.127       .  S
Zn839       O840   1.972       .  S
Zn839       O847   2.128       .  S
Zn839       O850   1.990       .  S
Zn839       O851   1.983       .  S
O841        C853   1.280   1_545  A
O842        C854   1.281       .  A
O843        C855   1.272       .  A
O844        C853   1.285       .  A
O845        C855   1.279       .  A
O846        C854   1.271       .  A
O847        C856   1.281       .  A
O848        C857   1.278       .  A
O849        C856   1.280   1_545  A
O850        C857   1.273       .  A
O851        C858   1.273   1_565  A
O852        C858   1.272       .  A
C853       C3676   1.550       .  S
C854       C1999   1.469       .  S
C855       C1980   1.481       .  S
C856       C2031   1.553       .  S
C857       C1964   1.478       .  S
C858       C3615   1.481       .  S
N859        C864   1.351       .  A
N859        C863   1.347       .  A
N859        H891   1.039       .  S
N860        C867   1.349       .  A
N860        C868   1.347       .  A
N861        C866   1.348       .  A
N861        C865   1.352       .  A
N861        H892   1.038       .  S
N862        C869   1.348       .  A
N862        C870   1.349       .  A
C863        C871   1.388       .  A
C863        C879   1.411       .  A
C864        C880   1.409       .  A
C864        C872   1.386       .  A
C865        C873   1.388       .  A
C865        C882   1.413       .  A
C866        C881   1.410       .  A
C866        C874   1.386       .  A
C867        C879   1.409       .  A
C867        C875   1.385       .  A
C868        C882   1.411   1_545  A
C868        C876   1.387       .  A
C869        C877   1.386       .  A
C869        C880   1.410   1_565  A
C870        C878   1.386       .  A
C870        C881   1.407       .  A
C871        C872   1.376       .  A
C871        H883   1.082       .  S
C872        H884   1.082       .  S
C873        C874   1.378       .  A
C873        H885   1.082       .  S
C874        H886   1.082       .  S
C875        C876   1.378       .  A
C875        H887   1.082       .  S
C876        H888   1.082       .  S
C877        C878   1.374       .  A
C877        H889   1.082       .  S
C878        H890   1.082       .  S
C879       C1916   1.480       .  S
C880       C1948   1.480       .  S
C881       C1932   1.479       .  S
C882       C1996   1.482       .  S
Zn893       O897   1.920       .  S
Zn893       O898   1.994       .  S
Zn893       O902   1.968       .  S
Zn893       O909   1.954   1_565  S
Zn894       O897   1.962   1_545  S
Zn894       O899   2.002   1_545  S
Zn894       O901   2.047   1_545  S
Zn894       O905   1.952       .  S
Zn895       O897   1.922       .  S
Zn895       O900   1.984       .  S
Zn895       O903   1.994       .  S
Zn895       O906   2.009       .  S
Zn896       O897   1.959   1_545  S
Zn896       O904   2.048       .  S
Zn896       O907   1.990       .  S
Zn896       O908   2.041       .  S
O898        C910   1.267       .  A
O899        C911   1.270       .  A
O900        C912   1.274       .  A
O901        C910   1.275       .  A
O902        C912   1.268       .  A
O903        C911   1.272       .  A
O904        C913   1.274   1_545  A
O905        C914   1.267       .  A
O906        C913   1.271       .  A
O907        C914   1.274       .  A
O908        C915   1.275       .  A
O909        C915   1.267       .  A
C910       C1900   1.493       .  S
C911       C3628   1.492       .  S
C912       C1884   1.456       .  S
C913       C3711   1.486   1_565  S
C914       C1871   1.452       .  S
C915       C1951   1.463       .  S
N916        C921   1.356       .  A
N916        C920   1.368       .  A
N916        H948   1.038       .  S
N917        C924   1.365       .  A
N917        C925   1.356       .  A
N918        C923   1.368       .  A
N918        C922   1.355       .  A
N918        H949   1.038       .  S
N919        C926   1.352       .  A
N919        C927   1.363       .  A
C920        C928   1.384       .  A
C920        C936   1.431       .  A
C921        C937   1.432   1_545  A
C921        C929   1.391       .  A
C922        C930   1.392       .  A
C922        C939   1.431       .  A
C923        C938   1.430       .  A
C923        C931   1.383       .  A
C924        C936   1.431       .  A
C924        C932   1.383       .  A
C925        C939   1.432   1_545  A
C925        C933   1.390       .  A
C926        C934   1.390       .  A
C926        C937   1.427       .  A
C927        C935   1.383       .  A
C927        C938   1.426       .  A
C928        C929   1.381       .  A
C928        H940   1.082       .  S
C929        H941   1.082       .  S
C930        C931   1.379       .  A
C930        H942   1.082       .  S
C931        H943   1.082       .  S
C932        C933   1.379       .  A
C932        H944   1.082       .  S
C933        H945   1.082       .  S
C934        C935   1.377       .  A
C934        H946   1.082       .  S
C935        H947   1.082       .  S
C936       C2319   1.541       .  S
C937       C1903   1.493       .  S
C938       C2175   1.540       .  S
C939       C1852   1.497       .  S
Zn950       O954   1.899       .  S
Zn950       O955   1.989       .  S
Zn950       O959   1.969       .  S
Zn950       O966   2.008       .  S
Zn951       O954   1.955   1_545  S
Zn951       O956   2.062   1_545  S
Zn951       O958   2.040   1_545  S
Zn951       O962   1.970       .  S
Zn952       O954   1.909       .  S
Zn952       O957   2.000       .  S
Zn952       O960   2.011       .  S
Zn952       O963   1.985   1_565  S
Zn953       O954   1.929   1_545  S
Zn953       O961   2.028       .  S
Zn953       O964   1.987       .  S
Zn953       O965   2.055       .  S
O955        C967   1.270       .  A
O956        C968   1.281       .  A
O957        C969   1.273       .  A
O958        C967   1.278       .  A
O959        C969   1.271       .  A
O960        C968   1.272       .  A
O961        C970   1.274       .  A
O962        C971   1.267       .  A
O963        C970   1.271       .  A
O964        C971   1.274       .  A
O965        C972   1.277       .  A
O966        C972   1.270   1_565  A
C967       C3500   1.495       .  S
C968       C1855   1.505       .  S
C969       C1804   1.460       .  S
C970       C1839   1.464       .  S
C971       C1820   1.444       .  S
C972       C3743   1.488       .  S
N973        C978   1.348       .  A
N973        C977   1.351       .  A
N973       H1005   1.037       .  S
N974        C981   1.348   1_565  A
N974        C982   1.349       .  A
N975        C980   1.352       .  A
N975        C979   1.349       .  A
N975       H1006   1.039       .  S
N976        C983   1.350       .  A
N976        C984   1.347       .  A
C977        C985   1.387       .  A
C977        C993   1.411       .  A
C978        C994   1.411       .  A
C978        C986   1.387       .  A
C979        C987   1.386       .  A
C979        C996   1.411       .  A
C980        C995   1.414       .  A
C980        C988   1.388       .  A
C981        C993   1.411       .  A
C981        C989   1.387   1_545  A
C982        C996   1.409       .  A
C982        C990   1.386       .  A
C983        C991   1.385       .  A
C983        C994   1.408       .  A
C984        C992   1.388       .  A
C984        C995   1.411   1_545  A
C985        C986   1.378       .  A
C985        H997   1.082       .  S
C986        H998   1.082       .  S
C987        C988   1.378       .  A
C987        H999   1.082       .  S
C988       H1000   1.082       .  S
C989        C990   1.372       .  A
C989       H1001   1.082       .  S
C990       H1002   1.082       .  S
C991        C992   1.374       .  A
C991       H1003   1.082       .  S
C992       H1004   1.082       .  S
C993       C1836   1.479       .  S
C994       C1756   1.478       .  S
C995       C1788   1.486       .  S
C996       C1772   1.484       .  S
Zn1007     O1011   1.965   1_565  S
Zn1007     O1012   2.116       .  S
Zn1007     O1016   2.002       .  S
Zn1007     O1023   1.947   1_565  S
Zn1008     O1011   1.989       .  S
Zn1008     O1013   2.034   1_545  S
Zn1008     O1015   2.151       .  S
Zn1008     O1019   2.008       .  S
Zn1009     O1011   1.963   1_565  S
Zn1009     O1014   1.959       .  S
Zn1009     O1017   1.982       .  S
Zn1009     O1020   2.098       .  S
Zn1010     O1011   1.982       .  S
Zn1010     O1018   2.129       .  S
Zn1010     O1021   2.013       .  S
Zn1010     O1022   2.037       .  S
O1012      C1024   1.279   1_565  A
O1013      C1025   1.279       .  A
O1014      C1026   1.271       .  A
O1015      C1024   1.285       .  A
O1016      C1026   1.274       .  A
O1017      C1025   1.270       .  A
O1018      C1027   1.280       .  A
O1019      C1028   1.276       .  A
O1020      C1027   1.276   1_565  A
O1021      C1028   1.279       .  A
O1022      C1029   1.277       .  A
O1023      C1029   1.268       .  A
C1024      C3647   1.549       .  S
C1025      C1791   1.489       .  S
C1026      C1740   1.455       .  S
C1027      C2015   1.542       .  S
C1028      C1724   1.469       .  S
C1029      C3487   1.453       .  S
Zn1030     O1034   1.906       .  S
Zn1030     O1035   1.967       .  S
Zn1030     O1039   2.002       .  S
Zn1030     O1046   2.029       .  S
Zn1031     O1034   1.940       .  S
Zn1031     O1036   2.067       .  S
Zn1031     O1038   2.051       .  S
Zn1031     O1042   1.980       .  S
Zn1032     O1034   1.896       .  S
Zn1032     O1037   1.942       .  S
Zn1032     O1040   1.991       .  S
Zn1032     O1043   1.970       .  S
Zn1033     O1034   1.921       .  S
Zn1033     O1041   2.032       .  S
Zn1033     O1044   1.986       .  S
Zn1033     O1045   2.039       .  S
O1035      C1047   1.268       .  A
O1036      C1048   1.278       .  A
O1037      C1049   1.264       .  A
O1038      C1047   1.276       .  A
O1039      C1049   1.277       .  A
O1040      C1048   1.267       .  A
O1041      C1050   1.276       .  A
O1042      C1051   1.274       .  A
O1043      C1050   1.267       .  A
O1044      C1051   1.275       .  A
O1045      C1052   1.277       .  A
O1046      C1052   1.278       .  A
C1047      C1660   1.489       .  S
C1048      C3103   1.493       .  S
C1049      C1692   1.471       .  S
C1050      C1775   1.490       .  S
C1051      C1708   1.464       .  S
C1052      C1676   1.484       .  S
Zn1053     O1057   1.946       .  S
Zn1053     O1058   2.037       .  S
Zn1053     O1062   1.996       .  S
Zn1053     O1069   1.983       .  S
Zn1054     O1057   1.917       .  S
Zn1054     O1059   1.972       .  S
Zn1054     O1061   2.002       .  S
Zn1054     O1065   1.956       .  S
Zn1055     O1057   1.928       .  S
Zn1055     O1060   2.009       .  S
Zn1055     O1063   1.974       .  S
Zn1055     O1066   1.985       .  S
Zn1056     O1057   1.955       .  S
Zn1056     O1064   2.023       .  S
Zn1056     O1067   2.030       .  S
Zn1056     O1068   1.971       .  S
O1058      C1070   1.275       .  A
O1059      C1071   1.267       .  A
O1060      C1072   1.272       .  A
O1061      C1070   1.270       .  A
O1062      C1072   1.270       .  A
O1063      C1071   1.273       .  A
O1064      C1073   1.272       .  A
O1065      C1074   1.266       .  A
O1066      C1073   1.267       .  A
O1067      C1074   1.273       .  A
O1068      C1075   1.270       .  A
O1069      C1075   1.271       .  A
C1070      C1615   1.499       .  S
C1071      C1628   1.468       .  S
C1072      C1759   1.479       .  S
C1073      C3279   1.482       .  S
C1074      C1596   1.460       .  S
C1075      C1644   1.458       .  S
Zn1076     O1080   1.929       .  S
Zn1076     O1081   1.986       .  S
Zn1076     O1085   1.961       .  S
Zn1076     O1092   1.950       .  S
Zn1077     O1080   1.938       .  S
Zn1077     O1082   1.930       .  S
Zn1077     O1084   2.044       .  S
Zn1077     O1088   1.986       .  S
Zn1078     O1080   1.962       .  S
Zn1078     O1083   2.035       .  S
Zn1078     O1086   1.983       .  S
Zn1078     O1089   2.018       .  S
Zn1079     O1080   1.934       .  S
Zn1079     O1087   2.026       .  S
Zn1079     O1090   2.042       .  S
Zn1079     O1091   1.998       .  S
O1081      C1093   1.266       .  A
O1082      C1094   1.267       .  A
O1083      C1095   1.273       .  A
O1084      C1093   1.274       .  A
O1085      C1095   1.266       .  A
O1086      C1094   1.271       .  A
O1087      C1096   1.274       .  A
O1088      C1097   1.269       .  A
O1089      C1096   1.271       .  A
O1090      C1097   1.276       .  A
O1091      C1098   1.276       .  A
O1092      C1098   1.266       .  A
C1093      C3084   1.487       .  S
C1094      C1583   1.464       .  S
C1095      C1935   1.471       .  S
C1096      C1548   1.490       .  S
C1097      C1532   1.488       .  S
C1098      C1564   1.442       .  S
Zn1099     O1103   1.922       .  S
Zn1099     O1104   2.031       .  S
Zn1099     O1108   2.000       .  S
Zn1099     O1115   2.024       .  S
Zn1100     O1103   1.887       .  S
Zn1100     O1105   1.977       .  S
Zn1100     O1107   2.023       .  S
Zn1100     O1111   1.995       .  S
Zn1101     O1103   1.920       .  S
Zn1101     O1106   1.966       .  S
Zn1101     O1109   2.026       .  S
Zn1101     O1112   2.037       .  S
Zn1102     O1103   1.894       .  S
Zn1102     O1110   1.984       .  S
Zn1102     O1113   1.960       .  S
Zn1102     O1114   1.975       .  S
O1104      C1116   1.277       .  A
O1105      C1117   1.271       .  A
O1106      C1118   1.273       .  A
O1107      C1116   1.275       .  A
O1108      C1118   1.274       .  A
O1109      C1117   1.274       .  A
O1110      C1119   1.268       .  A
O1111      C1120   1.276       .  A
O1112      C1119   1.275       .  A
O1113      C1120   1.266       .  A
O1114      C1121   1.268       .  A
O1115      C1121   1.275       .  A
C1116      C1471   1.498       .  S
C1117      C1484   1.475       .  S
C1118      C1516   1.460       .  S
C1119      C3292   1.481       .  S
C1120      C1500   1.470       .  S
C1121      C1919   1.483       .  S
Zn1122     O1126   1.940       .  S
Zn1122     O1127   1.988       .  S
Zn1122     O1131   2.010       .  S
Zn1122     O1138   1.999       .  S
Zn1123     O1126   1.922       .  S
Zn1123     O1128   1.970       .  S
Zn1123     O1130   1.971       .  S
Zn1123     O1134   1.963       .  S
Zn1124     O1126   1.892       .  S
Zn1124     O1129   1.938       .  S
Zn1124     O1132   1.954       .  S
Zn1124     O1135   1.918       .  S
Zn1125     O1126   1.935       .  S
Zn1125     O1133   2.013       .  S
Zn1125     O1136   1.973       .  S
Zn1125     O1137   1.966       .  S
O1127      C1139   1.271       .  A
O1128      C1140   1.267       .  A
O1129      C1141   1.264       .  A
O1130      C1139   1.268       .  A
O1131      C1141   1.271       .  A
O1132      C1140   1.265       .  A
O1133      C1142   1.270       .  A
O1134      C1143   1.268       .  A
O1135      C1142   1.262       .  A
O1136      C1143   1.268       .  A
O1137      C1144   1.268       .  A
O1138      C1144   1.270       .  A
C1139      C1519   1.461       .  S
C1140      C1868   1.461       .  S
C1141      C3343   1.461       .  S
C1142      C2607   1.448       .  S
C1143      C2287   1.462       .  S
C1144      C2095   1.449       .  S
Zn1145     O1149   1.903       .  S
Zn1145     O1150   1.980       .  S
Zn1145     O1154   1.954       .  S
Zn1145     O1161   1.964       .  S
Zn1146     O1149   1.915       .  S
Zn1146     O1151   1.990       .  S
Zn1146     O1153   1.991       .  S
Zn1146     O1157   1.980       .  S
Zn1147     O1149   1.921       .  S
Zn1147     O1152   1.959       .  S
Zn1147     O1155   1.950       .  S
Zn1147     O1158   1.997       .  S
Zn1148     O1149   1.902       .  S
Zn1148     O1156   1.950       .  S
Zn1148     O1159   1.969       .  S
Zn1148     O1160   1.983       .  S
O1150      C1162   1.268       .  A
O1151      C1163   1.267       .  A
O1152      C1164   1.265       .  A
O1153      C1162   1.270       .  A
O1154      C1164   1.268       .  A
O1155      C1163   1.266       .  A
O1156      C1165   1.267       .  A
O1157      C1166   1.274       .  A
O1158      C1165   1.269       .  A
O1159      C1166   1.268       .  A
O1160      C1167   1.269       .  A
O1161      C1167   1.267       .  A
C1162      C3327   1.460       .  S
C1163      C2223   1.445       .  S
C1164      C2831   1.458       .  S
C1165      C2303   1.449       .  S
C1166      C1647   1.469       .  S
C1167      C1823   1.463       .  S
Zn1168     O1172   1.904       .  S
Zn1168     O1173   1.997       .  S
Zn1168     O1177   1.980       .  S
Zn1168     O1184   2.017       .  S
Zn1169     O1172   1.912       .  S
Zn1169     O1174   1.994       .  S
Zn1169     O1176   1.959       .  S
Zn1169     O1180   1.960       .  S
Zn1170     O1172   1.905       .  S
Zn1170     O1175   1.992       .  S
Zn1170     O1178   1.969       .  S
Zn1170     O1181   1.994       .  S
Zn1171     O1172   1.877       .  S
Zn1171     O1179   1.952       .  S
Zn1171     O1182   1.941       .  S
Zn1171     O1183   1.965       .  S
O1173      C1185   1.271       .  A
O1174      C1186   1.269       .  A
O1175      C1187   1.272       .  A
O1176      C1185   1.268       .  A
O1177      C1187   1.270       .  A
O1178      C1186   1.269       .  A
O1179      C1188   1.270       .  A
O1180      C1189   1.265       .  A
O1181      C1188   1.271       .  A
O1182      C1189   1.263       .  A
O1183      C1190   1.269       .  A
O1184      C1190   1.274       .  A
C1185      C2783   1.455       .  S
C1186      C3151   1.455       .  S
C1187      C1807   1.470       .  S
C1188      C1695   1.461       .  S
C1189      C2236   1.435       .  S
C1190      C2143   1.466       .  S
Zn1191     O1195   1.868       .  S
Zn1191     O1196   2.003       .  S
Zn1191     O1200   1.937       .  S
Zn1191     O1207   1.957       .  S
Zn1192     O1195   1.834       .  S
Zn1192     O1197   1.942       .  S
Zn1192     O1199   1.901       .  S
Zn1192     O1203   1.920       .  S
Zn1193     O1195   1.890       .  S
Zn1193     O1198   1.990       .  S
Zn1193     O1201   2.015       .  S
Zn1193     O1204   1.970       .  S
Zn1194     O1195   1.892       .  S
Zn1194     O1202   1.978       .  S
Zn1194     O1205   1.988       .  S
Zn1194     O1206   2.016       .  S
O1196      C1208   1.270       .  A
O1197      C1209   1.263       .  A
O1198      C1210   1.274       .  A
O1199      C1208   1.261       .  A
O1200      C1210   1.272       .  A
O1201      C1209   1.271       .  A
O1202      C1211   1.270       .  A
O1203      C1212   1.265       .  A
O1204      C1211   1.272       .  A
O1205      C1212   1.274       .  A
O1206      C1213   1.273       .  A
O1207      C1213   1.268       .  A
C1208      C2076   1.451       .  S
C1209      C2159   1.467       .  S
C1210      C2687   1.442       .  S
C1211      C1887   1.453       .  S
C1212      C1580   1.450       .  S
C1213      C3135   1.481       .  S
Zn1214     O1218   1.869       .  S
Zn1214     O1219   1.974       .  S
Zn1214     O1223   1.964       .  S
Zn1214     O1230   1.962       .  S
Zn1215     O1218   1.886       .  S
Zn1215     O1220   1.958       .  S
Zn1215     O1222   1.947       .  S
Zn1215     O1226   2.014       .  S
Zn1216     O1218   1.909       .  S
Zn1216     O1221   1.984       .  S
Zn1216     O1224   1.998       .  S
Zn1216     O1227   1.945       .  S
Zn1217     O1218   1.891       .  S
Zn1217     O1225   2.001       .  S
Zn1217     O1228   1.958       .  S
Zn1217     O1229   1.985       .  S
O1219      C1231   1.269       .  A
O1220      C1232   1.262       .  A
O1221      C1233   1.272       .  A
O1222      C1231   1.264       .  A
O1223      C1233   1.271       .  A
O1224      C1232   1.267       .  A
O1225      C1234   1.270       .  A
O1226      C1235   1.272       .  A
O1227      C1234   1.269       .  A
O1228      C1235   1.270       .  A
O1229      C1236   1.270       .  A
O1230      C1236   1.272       .  A
C1231      C3052   1.459       .  S
C1232      C2703   1.462       .  S
C1233      C2460   1.460       .  S
C1234      C2511   1.447       .  S
C1235      C1967   1.451       .  S
C1236      C1567   1.449       .  S
Zn1237     O1241   1.902       .  S
Zn1237     O1242   1.957       .  S
Zn1237     O1246   1.980       .  S
Zn1237     O1253   1.934       .  S
Zn1238     O1241   1.917       .  S
Zn1238     O1243   2.000       .  S
Zn1238     O1245   1.988       .  S
Zn1238     O1249   1.943       .  S
Zn1239     O1241   1.901       .  S
Zn1239     O1244   1.974       .  S
Zn1239     O1247   1.970       .  S
Zn1239     O1250   1.983       .  S
Zn1240     O1241   1.943       .  S
Zn1240     O1248   1.988       .  S
Zn1240     O1251   2.007       .  S
Zn1240     O1252   1.992       .  S
O1242      C1254   1.269       .  A
O1243      C1255   1.270       .  A
O1244      C1256   1.270       .  A
O1245      C1254   1.268       .  A
O1246      C1256   1.267       .  A
O1247      C1255   1.271       .  A
O1248      C1257   1.272       .  A
O1249      C1258   1.267       .  A
O1250      C1257   1.269       .  A
O1251      C1258   1.269       .  A
O1252      C1259   1.269       .  A
O1253      C1259   1.265       .  A
C1254      C1503   1.455       .  S
C1255      C1983   1.463       .  S
C1256      C2383   1.481       .  S
C1257      C2591   1.461       .  S
C1258      C3228   1.447       .  S
C1259      C2447   1.460       .  S
Zn1260     O1264   1.931       .  S
Zn1260     O1265   1.976       .  S
Zn1260     O1269   1.970       .  S
Zn1260     O1276   1.987       .  S
Zn1261     O1264   1.934       .  S
Zn1261     O1266   2.029       .  S
Zn1261     O1268   1.979       .  S
Zn1261     O1272   2.018       .  S
Zn1262     O1264   1.887       .  S
Zn1262     O1267   1.986       .  S
Zn1262     O1270   1.949       .  S
Zn1262     O1273   1.978       .  S
Zn1263     O1264   1.886       .  S
Zn1263     O1271   1.975       .  S
Zn1263     O1274   1.934       .  S
Zn1263     O1275   1.987       .  S
O1265      C1277   1.267       .  A
O1266      C1278   1.273       .  A
O1267      C1279   1.270       .  A
O1268      C1277   1.273       .  A
O1269      C1279   1.268       .  A
O1270      C1278   1.268       .  A
O1271      C1280   1.274       .  A
O1272      C1281   1.272       .  A
O1273      C1280   1.268       .  A
O1274      C1281   1.265       .  A
O1275      C1282   1.267       .  A
O1276      C1282   1.269       .  A
C1277      C1631   1.445       .  S
C1278      C1727   1.460       .  S
C1279      C3247   1.462       .  S
C1280      C2847   1.474       .  S
C1281      C2367   1.458       .  S
C1282      C2975   1.457       .  S
Zn1283     O1287   1.927       .  S
Zn1283     O1288   1.983       .  S
Zn1283     O1292   1.985       .  S
Zn1283     O1299   1.994       .  S
Zn1284     O1287   1.910       .  S
Zn1284     O1289   1.952       .  S
Zn1284     O1291   1.947       .  S
Zn1284     O1295   1.961       .  S
Zn1285     O1287   1.915       .  S
Zn1285     O1290   1.967       .  S
Zn1285     O1293   1.990       .  S
Zn1285     O1296   2.009       .  S
Zn1286     O1287   1.882       .  S
Zn1286     O1294   1.929       .  S
Zn1286     O1297   1.917       .  S
Zn1286     O1298   1.948       .  S
O1288      C1300   1.269       .  A
O1289      C1301   1.268       .  A
O1290      C1302   1.272       .  A
O1291      C1300   1.266       .  A
O1292      C1302   1.270       .  A
O1293      C1301   1.270       .  A
O1294      C1303   1.264       .  A
O1295      C1304   1.264       .  A
O1296      C1303   1.270       .  A
O1297      C1304   1.262       .  A
O1298      C1305   1.266       .  A
O1299      C1305   1.270       .  A
C1300      C2527   1.460       .  S
C1301      C2959   1.458       .  S
C1302      C1711   1.459       .  S
C1303      C3036   1.461       .  S
C1304      C2799   1.443       .  S
C1305      C1743   1.466       .  S
C1306      C1308   1.535       .  S
C1306      C1310   1.530       .  S
C1306      C1309   1.584       .  S
C1306      C2943   1.586       .  S
C1307      C1311   1.528       .  S
C1307      C1313   1.530       .  S
C1307      C1312   1.579       .  S
C1307      C2428   1.585       .  S
C1308      C1316   1.376       .  A
C1308      C1311   1.397       .  A
C1309      C1320   1.399       .  A
C1309      C1312   1.433       .  A
C1310      C1324   1.374       .  A
C1310      C1313   1.387       .  A
C1311      C1314   1.366       .  A
C1312      C1318   1.397       .  A
C1313      C1321   1.374       .  A
C1314      N1315   1.348       .  A
C1314      H1327   1.082       .  S
N1315      C2495   1.422       .  S
N1315      C1316   1.356       .  A
C1316      H1317   1.082       .  S
C1318      N1319   1.363       .  A
C1318      H1328   1.078       .  S
N1319      C1350   1.463       .  S
N1319      C1320   1.367       .  A
C1320      H1326   1.080       .  S
C1321      N1322   1.360       .  A
C1321      H1323   1.082       .  S
N1322      C2351   1.439       .  S
N1322      C1324   1.356       .  A
C1324      H1325   1.078       .  S
Zn1329     O1333   2.033       .  S
Zn1329     O1334   2.162       .  S
Zn1329     O1338   2.094       .  S
Zn1329     O1345   2.142       .  S
Zn1330     O1333   2.035       .  S
Zn1330     O1335   2.115       .  S
Zn1330     O1337   2.157       .  S
Zn1330     O1341   2.097       .  S
Zn1331     O1333   2.033       .  S
Zn1331     O1336   2.088       .  S
Zn1331     O1339   2.132       .  S
Zn1331     O1342   2.153       .  S
Zn1332     O1333   2.034       .  S
Zn1332     O1340   2.192       .  S
Zn1332     O1343   2.110       .  S
Zn1332     O1344   2.123       .  S
O1334      C1346   1.289       .  A
O1335      C1347   1.286       .  A
O1336      C1348   1.284       .  A
O1337      C1346   1.290       .  A
O1338      C1348   1.285       .  A
O1339      C1347   1.290       .  A
O1340      C1349   1.296       .  A
O1341      C1350   1.285       .  A
O1342      C1349   1.287       .  A
O1343      C1350   1.288       .  A
O1344      C1351   1.287       .  A
O1345      C1351   1.291       .  A
C1346      N1388   1.486       .  S
C1347      N1411   1.470       .  S
C1348      N1365   1.457       .  S
C1349      N1434   1.491       .  S
C1351      N1457   1.473       .  S
C1352      C1354   1.540       .  S
C1352      C1356   1.535       .  S
C1352      C1355   1.556       .  S
C1352      C2268   1.585       .  S
C1353      C1357   1.559       .  S
C1353      C1359   1.550       .  S
C1353      C1358   1.561       .  S
C1353      C2127   1.593       .  S
C1354      C1362   1.375       .  A
C1354      C1357   1.410       .  A
C1355      C1366   1.389       .  A
C1355      C1358   1.410       .  A
C1356      C1370   1.372       .  A
C1356      C1359   1.404       .  A
C1357      C1360   1.389       .  A
C1358      C1364   1.391       .  A
C1359      C1367   1.380       .  A
C1360      N1361   1.352       .  A
C1360      H1373   1.078       .  S
N1361      C2063   1.435       .  S
N1361      C1362   1.344       .  A
C1362      H1363   1.078       .  S
C1364      N1365   1.367       .  A
C1364      H1374   1.082       .  S
N1365      C1366   1.365       .  A
C1366      H1372   1.082       .  S
C1367      N1368   1.356       .  A
C1367      H1369   1.080       .  S
N1368      C2207   1.428       .  S
N1368      C1370   1.352       .  A
C1370      H1371   1.080       .  S
C1375      C1377   1.542       .  S
C1375      C1379   1.523       .  S
C1375      C1378   1.611       .  S
C1375      C2191   1.599       .  S
C1376      C1380   1.540       .  S
C1376      C1382   1.527       .  S
C1376      C1381   1.581       .  S
C1376      C2927   1.584       .  S
C1377      C1385   1.380       .  A
C1377      C1380   1.396       .  A
C1378      C1389   1.418       .  A
C1378      C1381   1.432       .  A
C1379      C1393   1.372       .  A
C1379      C1382   1.384       .  A
C1380      C1383   1.378       .  A
C1381      C1387   1.399       .  A
C1382      C1390   1.379       .  A
C1383      N1384   1.351       .  A
C1383      H1396   1.082       .  S
N1384      C1663   1.434       .  S
N1384      C1385   1.359       .  A
C1385      H1386   1.082       .  S
C1387      N1388   1.367       .  A
C1387      H1397   1.081       .  S
N1388      C1389   1.382       .  A
C1389      H1395   1.081       .  S
C1390      N1391   1.356       .  A
C1390      H1392   1.083       .  S
N1391      C1599   1.426       .  S
N1391      C1393   1.349       .  A
C1393      H1394   1.083       .  S
C1398      C1400   1.571       .  S
C1398      C1402   1.554       .  S
C1398      C1401   1.582       .  S
C1398      C2476   1.600       .  S
C1399      C1403   1.537       .  S
C1399      C1405   1.557       .  S
C1399      C1404   1.556       .  S
C1399      C2111   1.586       .  S
C1400      C1408   1.400       .  A
C1400      C1403   1.404       .  A
C1401      C1412   1.406       .  A
C1401      C1404   1.411       .  A
C1402      C1416   1.389       .  A
C1402      C1405   1.407       .  A
C1403      C1406   1.380       .  A
C1404      C1410   1.391       .  A
C1405      C1413   1.388       .  A
C1406      N1407   1.347       .  A
C1406      H1419   1.080       .  S
N1407      C1679   1.439       .  S
N1407      C1408   1.355       .  A
C1408      H1409   1.074       .  S
C1410      N1411   1.364       .  A
C1410      H1420   1.082       .  S
N1411      C1412   1.376       .  A
C1412      H1418   1.082       .  S
C1413      N1414   1.352       .  A
C1413      H1415   1.076       .  S
N1414      C1551   1.443       .  S
N1414      C1416   1.355       .  A
C1416      H1417   1.080       .  S
C1421      C1423   1.520       .  S
C1421      C1425   1.526       .  S
C1421      C1424   1.577       .  S
C1421      C2412   1.575       .  S
C1422      C1426   1.544       .  S
C1422      C1428   1.536       .  S
C1422      C1427   1.623       .  S
C1422      C2047   1.609       .  S
C1423      C1431   1.374       .  A
C1423      C1426   1.387       .  A
C1424      C1435   1.397       .  A
C1424      C1427   1.436       .  A
C1425      C1439   1.373       .  A
C1425      C1428   1.390       .  A
C1426      C1429   1.388       .  A
C1427      C1433   1.423       .  A
C1428      C1436   1.378       .  A
C1429      N1430   1.360       .  A
C1429      H1442   1.082       .  S
N1430      C1535   1.435       .  S
N1430      C1431   1.349       .  A
C1431      H1432   1.083       .  S
C1433      N1434   1.388       .  A
C1433      H1443   1.082       .  S
N1434      C1435   1.366       .  A
C1435      H1441   1.082       .  S
C1436      N1437   1.352       .  A
C1436      H1438   1.082       .  S
N1437      C1487   1.429       .  S
N1437      C1439   1.355       .  A
C1439      H1440   1.082       .  S
C1444      C1446   1.555       .  S
C1444      C1448   1.549       .  S
C1444      C1447   1.581       .  S
C1444      C2335   1.595       .  S
C1445      C1449   1.545       .  S
C1445      C1451   1.562       .  S
C1445      C1450   1.558       .  S
C1445      C2255   1.585       .  S
C1446      C1454   1.386       .  A
C1446      C1449   1.400       .  A
C1447      C1458   1.406       .  A
C1447      C1450   1.411       .  A
C1448      C1462   1.384       .  A
C1448      C1451   1.406       .  A
C1449      C1452   1.384       .  A
C1450      C1456   1.393       .  A
C1451      C1459   1.392       .  A
C1452      N1453   1.355       .  A
C1452      H1465   1.079       .  S
N1453      C1468   1.445       .  S
N1453      C1454   1.353       .  A
C1454      H1455   1.077       .  S
C1456      N1457   1.365       .  A
C1456      H1466   1.082       .  S
N1457      C1458   1.376       .  A
C1458      H1464   1.082       .  S
C1459      N1460   1.354       .  A
C1459      H1461   1.075       .  S
N1460      C1612   1.445       .  S
N1460      C1462   1.352       .  A
C1462      H1463   1.078       .  S
C1467      C1468   1.404       .  A
C1467      C1472   1.403       .  A
C1467      H1474   1.083       .  S
C1468      C1469   1.412       .  A
C1469      C1476   1.505       .  S
C1469      C1470   1.408       .  A
C1470      C1471   1.411       .  A
C1470      H1475   1.084       .  S
C1471      C1472   1.423       .  A
C1472      C1473   1.510       .  S
C1473      H1477   1.111       .  S
C1473      H1478   1.110       .  S
C1473      H1479   1.110       .  S
C1476      H1480   1.107       .  S
C1476      H1481   1.110       .  S
C1476      H1482   1.111       .  S
C1483      C1484   1.405       .  A
C1483      C1488   1.395       .  A
C1483      H1490   1.084       .  S
C1484      C1485   1.414       .  A
C1485      C1492   1.506       .  S
C1485      C1486   1.406       .  A
C1486      C1487   1.403       .  A
C1486      H1491   1.084       .  S
C1487      C1488   1.406       .  A
C1488      C1489   1.507       .  S
C1489      H1493   1.111       .  S
C1489      H1494   1.108       .  S
C1489      H1495   1.110       .  S
C1492      H1496   1.110       .  S
C1492      H1497   1.110       .  S
C1492      H1498   1.111       .  S
C1499      C1500   1.403       .  A
C1499      C1504   1.391       .  A
C1499      H1506   1.085       .  S
C1500      C1501   1.422       .  A
C1501      C1508   1.510       .  S
C1501      C1502   1.397       .  A
C1502      C1503   1.396       .  A
C1502      H1507   1.085       .  S
C1503      C1504   1.409       .  A
C1504      C1505   1.507       .  S
C1505      H1509   1.110       .  S
C1505      H1510   1.111       .  S
C1505      H1511   1.110       .  S
C1508      H1512   1.110       .  S
C1508      H1513   1.110       .  S
C1508      H1514   1.111       .  S
C1515      C1516   1.404       .  A
C1515      C1520   1.395       .  A
C1515      H1522   1.085       .  S
C1516      C1517   1.408       .  A
C1517      C1524   1.507       .  S
C1517      C1518   1.397       .  A
C1518      C1519   1.405       .  A
C1518      H1523   1.084       .  S
C1519      C1520   1.409       .  A
C1520      C1521   1.509       .  S
C1521      H1525   1.111       .  S
C1521      H1526   1.110       .  S
C1521      H1527   1.108       .  S
C1524      H1528   1.110       .  S
C1524      H1529   1.110       .  S
C1524      H1530   1.111       .  S
C1531      C1532   1.410       .  A
C1531      C1536   1.406       .  A
C1531      H1538   1.084       .  S
C1532      C1533   1.420       .  A
C1533      C1540   1.509       .  S
C1533      C1534   1.404       .  A
C1534      C1535   1.400       .  A
C1534      H1539   1.084       .  S
C1535      C1536   1.406       .  A
C1536      C1537   1.504       .  S
C1537      H1541   1.111       .  S
C1537      H1542   1.111       .  S
C1537      H1543   1.110       .  S
C1540      H1544   1.110       .  S
C1540      H1545   1.111       .  S
C1540      H1546   1.111       .  S
C1547      C1548   1.405       .  A
C1547      C1552   1.403       .  A
C1547      H1554   1.084       .  S
C1548      C1549   1.419       .  A
C1549      C1556   1.507       .  S
C1549      C1550   1.409       .  A
C1550      C1551   1.403       .  A
C1550      H1555   1.084       .  S
C1551      C1552   1.413       .  A
C1552      C1553   1.502       .  S
C1553      H1557   1.111       .  S
C1553      H1558   1.105       .  S
C1553      H1559   1.110       .  S
C1556      H1560   1.111       .  S
C1556      H1561   1.109       .  S
C1556      H1562   1.111       .  S
C1563      C1564   1.395       .  A
C1563      C1568   1.394       .  A
C1563      H1570   1.084       .  S
C1564      C1565   1.407       .  A
C1565      C1572   1.508       .  S
C1565      C1566   1.393       .  A
C1566      C1567   1.399       .  A
C1566      H1571   1.085       .  S
C1567      C1568   1.411       .  A
C1568      C1569   1.507       .  S
C1569      H1573   1.111       .  S
C1569      H1574   1.110       .  S
C1569      H1575   1.108       .  S
C1572      H1576   1.111       .  S
C1572      H1577   1.110       .  S
C1572      H1578   1.111       .  S
C1579      C1580   1.403       .  A
C1579      C1584   1.392       .  A
C1579      H1586   1.084       .  S
C1580      C1581   1.406       .  A
C1581      C1588   1.510       .  S
C1581      C1582   1.387       .  A
C1582      C1583   1.408       .  A
C1582      H1587   1.084       .  S
C1583      C1584   1.413       .  A
C1584      C1585   1.510       .  S
C1585      H1589   1.111       .  S
C1585      H1590   1.110       .  S
C1585      H1591   1.109       .  S
C1588      H1592   1.110       .  S
C1588      H1593   1.109       .  S
C1588      H1594   1.111       .  S
C1595      C1596   1.400       .  A
C1595      C1600   1.395       .  A
C1595      H1602   1.085       .  S
C1596      C1597   1.411       .  A
C1597      C1604   1.506       .  S
C1597      C1598   1.403       .  A
C1598      C1599   1.400       .  A
C1598      H1603   1.084       .  S
C1599      C1600   1.409       .  A
C1600      C1601   1.507       .  S
C1601      H1605   1.111       .  S
C1601      H1606   1.109       .  S
C1601      H1607   1.111       .  S
C1604      H1608   1.110       .  S
C1604      H1609   1.111       .  S
C1604      H1610   1.111       .  S
C1611      C1612   1.402       .  A
C1611      C1616   1.404       .  A
C1611      H1618   1.083       .  S
C1612      C1613   1.412       .  A
C1613      C1620   1.505       .  S
C1613      C1614   1.406       .  A
C1614      C1615   1.410       .  A
C1614      H1619   1.084       .  S
C1615      C1616   1.425       .  A
C1616      C1617   1.510       .  S
C1617      H1621   1.111       .  S
C1617      H1622   1.110       .  S
C1617      H1623   1.110       .  S
C1620      H1624   1.110       .  S
C1620      H1625   1.108       .  S
C1620      H1626   1.111       .  S
C1627      C1628   1.406       .  A
C1627      C1632   1.393       .  A
C1627      H1634   1.084       .  S
C1628      C1629   1.418       .  A
C1629      C1636   1.509       .  S
C1629      C1630   1.395       .  A
C1630      C1631   1.396       .  A
C1630      H1635   1.084       .  S
C1631      C1632   1.403       .  A
C1632      C1633   1.507       .  S
C1633      H1637   1.111       .  S
C1633      H1638   1.110       .  S
C1633      H1639   1.110       .  S
C1636      H1640   1.110       .  S
C1636      H1641   1.110       .  S
C1636      H1642   1.111       .  S
C1643      C1644   1.398       .  A
C1643      C1648   1.397       .  A
C1643      H1650   1.085       .  S
C1644      C1645   1.412       .  A
C1645      C1652   1.511       .  S
C1645      C1646   1.392       .  A
C1646      C1647   1.402       .  A
C1646      H1651   1.084       .  S
C1647      C1648   1.421       .  A
C1648      C1649   1.510       .  S
C1649      H1653   1.111       .  S
C1649      H1654   1.110       .  S
C1649      H1655   1.110       .  S
C1652      H1656   1.110       .  S
C1652      H1657   1.109       .  S
C1652      H1658   1.111       .  S
C1659      C1660   1.410       .  A
C1659      C1664   1.398       .  A
C1659      H1666   1.084       .  S
C1660      C1661   1.418       .  A
C1661      C1668   1.506       .  S
C1661      C1662   1.409       .  A
C1662      C1663   1.404       .  A
C1662      H1667   1.084       .  S
C1663      C1664   1.404       .  A
C1664      C1665   1.506       .  S
C1665      H1669   1.110       .  S
C1665      H1670   1.110       .  S
C1665      H1671   1.108       .  S
C1668      H1672   1.110       .  S
C1668      H1673   1.110       .  S
C1668      H1674   1.111       .  S
C1675      C1676   1.404       .  A
C1675      C1680   1.402       .  A
C1675      H1682   1.085       .  S
C1676      C1677   1.416       .  A
C1677      C1684   1.505       .  S
C1677      C1678   1.413       .  A
C1678      C1679   1.403       .  A
C1678      H1683   1.083       .  S
C1679      C1680   1.410       .  A
C1680      C1681   1.506       .  S
C1681      H1685   1.110       .  S
C1681      H1686   1.108       .  S
C1681      H1687   1.110       .  S
C1684      H1688   1.110       .  S
C1684      H1689   1.109       .  S
C1684      H1690   1.111       .  S
C1691      C1692   1.404       .  A
C1691      C1696   1.391       .  A
C1691      H1698   1.084       .  S
C1692      C1693   1.423       .  A
C1693      C1700   1.510       .  S
C1693      C1694   1.397       .  A
C1694      C1695   1.397       .  A
C1694      H1699   1.084       .  S
C1695      C1696   1.407       .  A
C1696      C1697   1.505       .  S
C1697      H1701   1.110       .  S
C1697      H1702   1.111       .  S
C1697      H1703   1.110       .  S
C1700      H1704   1.111       .  S
C1700      H1705   1.110       .  S
C1700      H1706   1.111       .  S
C1707      C1708   1.403       .  A
C1707      C1712   1.396       .  A
C1707      H1714   1.084       .  S
C1708      C1709   1.415       .  A
C1709      C1716   1.511       .  S
C1709      C1710   1.393       .  A
C1710      C1711   1.399       .  A
C1710      H1715   1.085       .  S
C1711      C1712   1.412       .  A
C1712      C1713   1.509       .  S
C1713      H1717   1.111       .  S
C1713      H1718   1.110       .  S
C1713      H1719   1.110       .  S
C1716      H1720   1.111       .  S
C1716      H1721   1.109       .  S
C1716      H1722   1.111       .  S
C1723      C1724   1.405       .  A
C1723      C1728   1.400       .  A
C1723      H1730   1.084       .  S
C1724      C1725   1.411       .  A
C1725      C1732   1.508       .  S
C1725      C1726   1.398       .  A
C1726      C1727   1.403       .  A
C1726      H1731   1.085       .  S
C1727      C1728   1.407       .  A
C1728      C1729   1.507       .  S
C1729      H1733   1.111       .  S
C1729      H1734   1.110       .  S
C1729      H1735   1.110       .  S
C1732      H1736   1.110       .  S
C1732      H1737   1.111       .  S
C1732      H1738   1.111       .  S
C1739      C1740   1.403       .  A
C1739      C1744   1.397       .  A
C1739      H1746   1.085       .  S
C1740      C1741   1.406       .  A
C1741      C1748   1.508       .  S
C1741      C1742   1.393       .  A
C1742      C1743   1.406       .  A
C1742      H1747   1.084       .  S
C1743      C1744   1.413       .  A
C1744      C1745   1.509       .  S
C1745      H1749   1.111       .  S
C1745      H1750   1.111       .  S
C1745      H1751   1.109       .  S
C1748      H1752   1.110       .  S
C1748      H1753   1.110       .  S
C1748      H1754   1.111       .  S
C1755      C1756   1.399       .  A
C1755      C1760   1.401       .  A
C1755      H1762   1.084       .  S
C1756      C1757   1.408       .  A
C1757      C1764   1.506       .  S
C1757      C1758   1.402       .  A
C1758      C1759   1.408       .  A
C1758      H1763   1.084       .  S
C1759      C1760   1.417       .  A
C1760      C1761   1.508       .  S
C1761      H1765   1.111       .  S
C1761      H1766   1.109       .  S
C1761      H1767   1.110       .  S
C1764      H1768   1.110       .  S
C1764      H1769   1.110       .  S
C1764      H1770   1.111       .  S
C1771      C1772   1.397       .  A
C1771      C1776   1.400       .  A
C1771      H1778   1.084       .  S
C1772      C1773   1.409       .  A
C1773      C1780   1.507       .  S
C1773      C1774   1.402       .  A
C1774      C1775   1.409       .  A
C1774      H1779   1.083       .  S
C1775      C1776   1.426       .  A
C1776      C1777   1.510       .  S
C1777      H1781   1.111       .  S
C1777      H1782   1.110       .  S
C1777      H1783   1.110       .  S
C1780      H1784   1.110       .  S
C1780      H1785   1.109       .  S
C1780      H1786   1.111       .  S
C1787      C1788   1.398       .  A
C1787      C1792   1.400       .  A
C1787      H1794   1.084       .  S
C1788      C1789   1.411       .  A
C1789      C1796   1.508   1_565  S
C1789      C1790   1.401       .  A
C1790      C1791   1.408       .  A
C1790      H1795   1.083   1_565  S
C1791      C1792   1.425       .  A
C1792      C1793   1.510       .  S
C1793      H1797   1.111       .  S
C1793      H1798   1.109       .  S
C1793      H1799   1.111       .  S
C1796      H1800   1.108       .  S
C1796      H1801   1.110   1_545  S
C1796      H1802   1.111       .  S
C1803      C1804   1.399       .  A
C1803      C1808   1.397       .  A
C1803      H1810   1.085       .  S
C1804      C1805   1.410       .  A
C1805      C1812   1.510       .  S
C1805      C1806   1.396       .  A
C1806      C1807   1.405       .  A
C1806      H1811   1.084       .  S
C1807      C1808   1.416       .  A
C1808      C1809   1.510       .  S
C1809      H1813   1.111       .  S
C1809      H1814   1.110       .  S
C1809      H1815   1.109       .  S
C1812      H1816   1.110       .  S
C1812      H1817   1.109       .  S
C1812      H1818   1.111       .  S
C1819      C1820   1.394       .  A
C1819      C1824   1.396       .  A
C1819      H1826   1.084       .  S
C1820      C1821   1.406       .  A
C1821      C1828   1.509       .  S
C1821      C1822   1.393       .  A
C1822      C1823   1.403       .  A
C1822      H1827   1.084       .  S
C1823      C1824   1.417       .  A
C1824      C1825   1.509       .  S
C1825      H1829   1.111       .  S
C1825      H1830   1.108       .  S
C1825      H1831   1.110       .  S
C1828      H1832   1.110       .  S
C1828      H1833   1.111       .  S
C1828      H1834   1.111       .  S
C1835      C1836   1.403       .  A
C1835      C1840   1.402       .  A
C1835      H1842   1.084       .  S
C1836      C1837   1.409       .  A
C1837      C1844   1.506       .  S
C1837      C1838   1.400       .  A
C1838      C1839   1.402       .  A
C1838      H1843   1.084       .  S
C1839      C1840   1.410       .  A
C1840      C1841   1.507       .  S
C1841      H1845   1.111       .  S
C1841      H1846   1.110       .  S
C1841      H1847   1.110   1_545  S
C1844      H1848   1.110       .  S
C1844      H1849   1.110       .  S
C1844      H1850   1.111       .  S
C1851      C1852   1.398       .  A
C1851      C1856   1.408       .  A
C1851      H1858   1.084       .  S
C1852      C1853   1.411       .  A
C1853      C1860   1.506   1_565  S
C1853      C1854   1.409       .  A
C1854      C1855   1.410       .  A
C1854      H1859   1.083       .  S
C1855      C1856   1.428       .  A
C1856      C1857   1.509       .  S
C1857      H1861   1.111       .  S
C1857      H1862   1.110       .  S
C1857      H1863   1.110       .  S
C1860      H1864   1.110       .  S
C1860      H1865   1.110   1_545  S
C1860      H1866   1.111       .  S
C1867      C1868   1.405       .  A
C1867      C1872   1.391       .  A
C1867      H1874   1.084       .  S
C1868      C1869   1.413       .  A
C1869      C1876   1.509       .  S
C1869      C1870   1.395       .  A
C1870      C1871   1.401       .  A
C1870      H1875   1.085       .  S
C1871      C1872   1.407       .  A
C1872      C1873   1.509       .  S
C1873      H1877   1.111       .  S
C1873      H1878   1.109       .  S
C1873      H1879   1.110       .  S
C1876      H1880   1.110       .  S
C1876      H1881   1.111       .  S
C1876      H1882   1.108       .  S
C1883      C1884   1.400       .  A
C1883      C1888   1.393       .  A
C1883      H1890   1.085       .  S
C1884      C1885   1.412       .  A
C1885      C1892   1.509       .  S
C1885      C1886   1.395       .  A
C1886      C1887   1.400       .  A
C1886      H1891   1.085       .  S
C1887      C1888   1.410       .  A
C1888      C1889   1.509       .  S
C1889      H1893   1.111       .  S
C1889      H1894   1.110       .  S
C1889      H1895   1.111       .  S
C1892      H1896   1.110       .  S
C1892      H1897   1.110       .  S
C1892      H1898   1.111       .  S
C1899      C1900   1.406       .  A
C1899      C1904   1.407       .  A
C1899      H1906   1.084       .  S
C1900      C1901   1.425   1_565  A
C1901      C1908   1.510       .  S
C1901      C1902   1.405       .  A
C1902      C1903   1.398   1_545  A
C1902      H1907   1.084       .  S
C1903      C1904   1.413       .  A
C1904      C1905   1.506       .  S
C1905      H1909   1.111       .  S
C1905      H1910   1.110       .  S
C1905      H1911   1.110   1_565  S
C1908      H1912   1.110   1_545  S
C1908      H1913   1.111       .  S
C1908      H1914   1.111       .  S
C1915      C1916   1.397       .  A
C1915      C1920   1.401       .  A
C1915      H1922   1.084       .  S
C1916      C1917   1.411       .  A
C1917      C1924   1.508       .  S
C1917      C1918   1.400       .  A
C1918      C1919   1.406       .  A
C1918      H1923   1.084       .  S
C1919      C1920   1.422       .  A
C1920      C1921   1.509       .  S
C1921      H1925   1.111       .  S
C1921      H1926   1.109       .  S
C1921      H1927   1.110       .  S
C1924      H1928   1.109       .  S
C1924      H1929   1.110       .  S
C1924      H1930   1.111       .  S
C1931      C1932   1.403       .  A
C1931      C1936   1.402       .  A
C1931      H1938   1.084       .  S
C1932      C1933   1.409       .  A
C1933      C1940   1.507       .  S
C1933      C1934   1.399       .  A
C1934      C1935   1.405       .  A
C1934      H1939   1.085       .  S
C1935      C1936   1.413       .  A
C1936      C1937   1.507       .  S
C1937      H1941   1.111       .  S
C1937      H1942   1.110       .  S
C1937      H1943   1.111       .  S
C1940      H1944   1.109       .  S
C1940      H1945   1.110       .  S
C1940      H1946   1.111       .  S
C1947      C1948   1.403       .  A
C1947      C1952   1.403       .  A
C1947      H1954   1.084       .  S
C1948      C1949   1.410       .  A
C1949      C1956   1.508       .  S
C1949      C1950   1.399       .  A
C1950      C1951   1.402       .  A
C1950      H1955   1.085       .  S
C1951      C1952   1.410       .  A
C1952      C1953   1.507       .  S
C1953      H1957   1.111       .  S
C1953      H1958   1.111   1_545  S
C1953      H1959   1.110       .  S
C1956      H1960   1.110       .  S
C1956      H1961   1.109       .  S
C1956      H1962   1.111       .  S
C1963      C1964   1.407       .  A
C1963      C1968   1.398       .  A
C1963      H1970   1.084       .  S
C1964      C1965   1.420       .  A
C1965      C1972   1.509       .  S
C1965      C1966   1.398       .  A
C1966      C1967   1.396       .  A
C1966      H1971   1.085       .  S
C1967      C1968   1.405       .  A
C1968      C1969   1.508       .  S
C1969      H1973   1.111       .  S
C1969      H1974   1.110       .  S
C1969      H1975   1.111       .  S
C1972      H1976   1.110       .  S
C1972      H1977   1.110       .  S
C1972      H1978   1.111       .  S
C1979      C1980   1.407       .  A
C1979      C1984   1.399       .  A
C1979      H1986   1.084       .  S
C1980      C1981   1.421       .  A
C1981      C1988   1.510       .  S
C1981      C1982   1.396       .  A
C1982      C1983   1.398       .  A
C1982      H1987   1.085       .  S
C1983      C1984   1.409       .  A
C1984      C1985   1.508       .  S
C1985      H1989   1.111       .  S
C1985      H1990   1.110       .  S
C1985      H1991   1.110       .  S
C1988      H1992   1.110       .  S
C1988      H1993   1.110       .  S
C1988      H1994   1.111       .  S
C1995      C1996   1.399       .  A
C1995      C2000   1.402       .  A
C1995      H2002   1.084       .  S
C1996      C1997   1.412       .  A
C1997      C2004   1.506       .  S
C1997      C1998   1.403       .  A
C1998      C1999   1.401       .  A
C1998      H2003   1.084       .  S
C1999      C2000   1.415       .  A
C2000      C2001   1.508       .  S
C2001      H2005   1.111       .  S
C2001      H2006   1.110       .  S
C2001      H2007   1.109       .  S
C2004      H2008   1.110       .  S
C2004      H2009   1.110   1_565  S
C2004      H2010   1.111   1_565  S
C2011      C2012   1.411       .  A
C2011      C2016   1.428       .  A
C2011      H2018   1.083       .  S
C2012      C2013   1.422   1_545  A
C2013      C2020   1.505       .  S
C2013      C2014   1.429       .  A
C2014      C2015   1.417   1_565  A
C2014      H2019   1.083       .  S
C2015      C2016   1.426       .  A
C2016      C2017   1.505       .  S
C2017      H2021   1.111       .  S
C2017      H2022   1.110       .  S
C2017      H2023   1.111       .  S
C2020      H2024   1.110       .  S
C2020      H2025   1.108       .  S
C2020      H2026   1.111       .  S
C2027      C2028   1.411       .  A
C2027      C2032   1.431       .  A
C2027      H2034   1.083       .  S
C2028      C2029   1.421   1_565  A
C2029      C2036   1.504       .  S
C2029      C2030   1.431       .  A
C2030      C2031   1.419   1_545  A
C2030      H2035   1.083       .  S
C2031      C2032   1.432       .  A
C2032      C2033   1.506       .  S
C2033      H2037   1.111       .  S
C2033      H2038   1.110       .  S
C2033      H2039   1.110   1_565  S
C2036      H2040   1.110   1_545  S
C2036      H2041   1.110       .  S
C2036      H2042   1.111       .  S
C2043      C2044   1.401       .  A
C2043      C2048   1.425       .  A
C2043      H2050   1.085       .  S
C2044      C2045   1.441       .  A
C2045      C2052   1.505       .  S
C2045      C2046   1.446       .  A
C2046      C2047   1.415       .  A
C2046      H2051   1.082       .  S
C2047      C2048   1.455       .  A
C2048      C2049   1.517       .  S
C2049      H2053   1.111       .  S
C2049      H2054   1.098       .  S
C2049      H2055   1.111       .  S
C2052      H2056   1.110       .  S
C2052      H2057   1.111       .  S
C2052      H2058   1.111       .  S
C2059      C2060   1.395       .  A
C2059      C2064   1.393       .  A
C2059      H2066   1.085       .  S
C2060      C2061   1.409       .  A
C2061      C2068   1.505       .  S
C2061      C2062   1.403       .  A
C2062      C2063   1.404       .  A
C2062      H2067   1.083       .  S
C2063      C2064   1.420       .  A
C2064      C2065   1.510       .  S
C2065      H2069   1.111       .  S
C2065      H2070   1.111       .  S
C2065      H2071   1.106       .  S
C2068      H2072   1.110       .  S
C2068      H2073   1.110       .  S
C2068      H2074   1.111       .  S
C2075      C2076   1.406       .  A
C2075      C2080   1.390       .  A
C2075      H2082   1.085       .  S
C2076      C2077   1.407       .  A
C2077      C2084   1.507       .  S
C2077      C2078   1.393       .  A
C2078      C2079   1.402       .  A
C2078      H2083   1.085       .  S
C2079      C2080   1.403       .  A
C2080      C2081   1.508       .  S
C2081      H2085   1.111       .  S
C2081      H2086   1.109       .  S
C2081      H2087   1.110       .  S
C2084      H2088   1.110       .  S
C2084      H2089   1.110       .  S
C2084      H2090   1.111       .  S
C2091      C2092   1.401       .  A
C2091      C2096   1.400       .  A
C2091      H2098   1.085       .  S
C2092      C2093   1.407       .  A
C2093      C2100   1.507       .  S
C2093      C2094   1.392       .  A
C2094      C2095   1.397       .  A
C2094      H2099   1.085       .  S
C2095      C2096   1.411       .  A
C2096      C2097   1.507       .  S
C2097      H2101   1.110       .  S
C2097      H2102   1.111       .  S
C2097      H2103   1.109       .  S
C2100      H2104   1.110       .  S
C2100      H2105   1.109       .  S
C2100      H2106   1.111       .  S
C2107      C2108   1.408       .  A
C2107      C2112   1.423       .  A
C2107      H2114   1.084       .  S
C2108      C2109   1.419       .  A
C2109      C2116   1.507       .  S
C2109      C2110   1.420       .  A
C2110      C2111   1.412       .  A
C2110      H2115   1.072       .  S
C2111      C2112   1.432       .  A
C2112      C2113   1.508       .  S
C2113      H2117   1.110       .  S
C2113      H2118   1.105       .  S
C2113      H2119   1.110       .  S
C2116      H2120   1.109       .  S
C2116      H2121   1.111       .  S
C2116      H2122   1.111       .  S
C2123      C2124   1.414       .  A
C2123      C2128   1.432       .  A
C2123      H2130   1.084       .  S
C2124      C2125   1.424       .  A
C2125      C2132   1.508       .  S
C2125      C2126   1.421       .  A
C2126      C2127   1.411       .  A
C2126      H2131   1.076       .  S
C2127      C2128   1.432       .  A
C2128      C2129   1.506       .  S
C2129      H2133   1.110       .  S
C2129      H2134   1.110       .  S
C2129      H2135   1.106       .  S
C2132      H2136   1.110       .  S
C2132      H2137   1.109       .  S
C2132      H2138   1.111       .  S
C2139      C2140   1.406       .  A
C2139      C2144   1.402       .  A
C2139      H2146   1.084       .  S
C2140      C2141   1.410       .  A
C2141      C2148   1.508       .  S
C2141      C2142   1.396       .  A
C2142      C2143   1.404       .  A
C2142      H2147   1.085       .  S
C2143      C2144   1.409       .  A
C2144      C2145   1.507       .  S
C2145      H2149   1.111       .  S
C2145      H2150   1.109       .  S
C2145      H2151   1.111       .  S
C2148      H2152   1.109       .  S
C2148      H2153   1.110       .  S
C2148      H2154   1.111       .  S
C2155      C2156   1.412       .  A
C2155      C2160   1.396       .  A
C2155      H2162   1.083       .  S
C2156      C2157   1.415       .  A
C2157      C2164   1.510       .  S
C2157      C2158   1.397       .  A
C2158      C2159   1.406       .  A
C2158      H2163   1.084       .  S
C2159      C2160   1.407       .  A
C2160      C2161   1.509       .  S
C2161      H2165   1.111       .  S
C2161      H2166   1.109       .  S
C2161      H2167   1.111       .  S
C2164      H2168   1.110       .  S
C2164      H2169   1.110       .  S
C2164      H2170   1.111       .  S
C2171      C2172   1.415       .  A
C2171      C2176   1.427       .  A
C2171      H2178   1.083       .  S
C2172      C2173   1.435       .  A
C2173      C2180   1.509       .  S
C2173      C2174   1.424       .  A
C2174      C2175   1.407       .  A
C2174      H2179   1.084       .  S
C2175      C2176   1.424       .  A
C2176      C2177   1.505       .  S
C2177      H2181   1.110       .  S
C2177      H2182   1.108       .  S
C2177      H2183   1.110       .  S
C2180      H2184   1.110       .  S
C2180      H2185   1.110       .  S
C2180      H2186   1.111       .  S
C2187      C2188   1.402       .  A
C2187      C2192   1.426       .  A
C2187      H2194   1.084       .  S
C2188      C2189   1.438       .  A
C2189      C2196   1.500       .  S
C2189      C2190   1.439       .  A
C2190      C2191   1.410       .  A
C2190      H2195   1.082       .  S
C2191      C2192   1.452       .  A
C2192      C2193   1.515       .  S
C2193      H2197   1.110       .  S
C2193      H2198   1.111       .  S
C2193      H2199   1.099       .  S
C2196      H2200   1.109       .  S
C2196      H2201   1.108       .  S
C2196      H2202   1.110       .  S
C2203      C2204   1.396       .  A
C2203      C2208   1.390       .  A
C2203      H2210   1.081       .  S
C2204      C2205   1.413       .  A
C2205      C2212   1.505       .  S
C2205      C2206   1.409       .  A
C2206      C2207   1.402       .  A
C2206      H2211   1.083       .  S
C2207      C2208   1.408       .  A
C2208      C2209   1.505       .  S
C2209      H2213   1.106       .  S
C2209      H2214   1.102       .  S
C2209      H2215   1.107       .  S
C2212      H2216   1.110       .  S
C2212      H2217   1.110       .  S
C2212      H2218   1.111       .  S
C2219      C2220   1.408       .  A
C2219      C2224   1.393       .  A
C2219      H2226   1.083       .  S
C2220      C2221   1.424       .  A
C2221      C2228   1.510       .  S
C2221      C2222   1.398       .  A
C2222      C2223   1.394       .  A
C2222      H2227   1.085       .  S
C2223      C2224   1.403       .  A
C2224      C2225   1.509       .  S
C2225      H2229   1.111       .  S
C2225      H2230   1.110       .  S
C2225      H2231   1.110       .  S
C2228      H2232   1.110       .  S
C2228      H2233   1.110       .  S
C2228      H2234   1.111       .  S
C2235      C2236   1.395       .  A
C2235      C2240   1.390       .  A
C2235      H2242   1.085       .  S
C2236      C2237   1.405       .  A
C2237      C2244   1.508       .  S
C2237      C2238   1.390       .  A
C2238      C2239   1.402       .  A
C2238      H2243   1.085       .  S
C2239      C2240   1.412       .  A
C2240      C2241   1.510       .  S
C2241      H2245   1.111       .  S
C2241      H2246   1.110       .  S
C2241      H2247   1.110       .  S
C2244      H2248   1.110       .  S
C2244      H2249   1.110       .  S
C2244      H2250   1.111       .  S
C2251      C2252   1.411       .  A
C2251      C2256   1.425       .  A
C2251      H2258   1.084       .  S
C2252      C2253   1.420       .  A
C2253      C2260   1.508       .  S
C2253      C2254   1.417       .  A
C2254      C2255   1.410       .  A
C2254      H2259   1.073       .  S
C2255      C2256   1.431       .  A
C2256      C2257   1.508       .  S
C2257      H2261   1.110       .  S
C2257      H2262   1.106       .  S
C2257      H2263   1.110       .  S
C2260      H2264   1.109       .  S
C2260      H2265   1.111       .  S
C2260      H2266   1.111       .  S
C2267      C2268   1.417       .  A
C2267      C2272   1.421       .  A
C2267      H2274   1.078       .  S
C2268      C2269   1.424       .  A
C2269      C2276   1.504       .  S
C2269      C2270   1.420       .  A
C2270      C2271   1.413       .  A
C2270      H2275   1.084       .  S
C2271      C2272   1.416       .  A
C2272      C2273   1.506       .  S
C2273      H2277   1.110       .  S
C2273      H2278   1.111       .  S
C2273      H2279   1.110       .  S
C2276      H2280   1.104       .  S
C2276      H2281   1.110       .  S
C2276      H2282   1.110       .  S
C2283      C2284   1.396       .  A
C2283      C2288   1.395       .  A
C2283      H2290   1.085       .  S
C2284      C2285   1.410       .  A
C2285      C2292   1.510       .  S
C2285      C2286   1.394       .  A
C2286      C2287   1.402       .  A
C2286      H2291   1.084       .  S
C2287      C2288   1.416       .  A
C2288      C2289   1.510       .  S
C2289      H2293   1.111       .  S
C2289      H2294   1.111       .  S
C2289      H2295   1.109       .  S
C2292      H2296   1.110       .  S
C2292      H2297   1.111       .  S
C2292      H2298   1.111       .  S
C2299      C2300   1.406       .  A
C2299      C2304   1.397       .  A
C2299      H2306   1.084       .  S
C2300      C2301   1.415       .  A
C2301      C2308   1.510       .  S
C2301      C2302   1.393       .  A
C2302      C2303   1.398       .  A
C2302      H2307   1.085       .  S
C2303      C2304   1.405       .  A
C2304      C2305   1.507       .  S
C2305      H2309   1.111       .  S
C2305      H2310   1.110       .  S
C2305      H2311   1.110       .  S
C2308      H2312   1.110       .  S
C2308      H2313   1.110       .  S
C2308      H2314   1.111       .  S
C2315      C2316   1.417       .  A
C2315      C2320   1.422       .  A
C2315      H2322   1.084       .  S
C2316      C2317   1.428       .  A
C2317      C2324   1.505       .  S
C2317      C2318   1.431       .  A
C2318      C2319   1.414       .  A
C2318      H2323   1.083       .  S
C2319      C2320   1.420       .  A
C2320      C2321   1.506       .  S
C2321      H2325   1.110       .  S
C2321      H2326   1.110       .  S
C2321      H2327   1.108       .  S
C2324      H2328   1.110       .  S
C2324      H2329   1.110       .  S
C2324      H2330   1.111       .  S
C2331      C2332   1.413       .  A
C2331      C2336   1.429       .  A
C2331      H2338   1.084       .  S
C2332      C2333   1.420       .  A
C2333      C2340   1.506       .  S
C2333      C2334   1.424       .  A
C2334      C2335   1.414       .  A
C2334      H2339   1.080       .  S
C2335      C2336   1.428       .  A
C2336      C2337   1.507       .  S
C2337      H2341   1.110       .  S
C2337      H2342   1.109       .  S
C2337      H2343   1.109       .  S
C2340      H2344   1.110       .  S
C2340      H2345   1.110       .  S
C2340      H2346   1.111       .  S
C2347      C2348   1.399       .  A
C2347      C2352   1.399       .  A
C2347      H2354   1.085       .  S
C2348      C2349   1.407       .  A
C2349      C2356   1.506       .  S
C2349      C2350   1.401       .  A
C2350      C2351   1.406       .  A
C2350      H2355   1.084       .  S
C2351      C2352   1.420       .  A
C2352      C2353   1.509       .  S
C2353      H2357   1.111       .  S
C2353      H2358   1.108       .  S
C2353      H2359   1.110       .  S
C2356      H2360   1.110       .  S
C2356      H2361   1.109       .  S
C2356      H2362   1.111       .  S
C2363      C2364   1.401       .  A
C2363      C2368   1.399       .  A
C2363      H2370   1.084       .  S
C2364      C2365   1.407       .  A
C2365      C2372   1.507       .  S
C2365      C2366   1.394       .  A
C2366      C2367   1.402       .  A
C2366      H2371   1.085       .  S
C2367      C2368   1.411       .  A
C2368      C2369   1.507       .  S
C2369      H2373   1.111       .  S
C2369      H2374   1.110       .  S
C2369      H2375   1.111       .  S
C2372      H2376   1.108       .  S
C2372      H2377   1.109       .  S
C2372      H2378   1.111       .  S
C2379      C2380   1.405       .  A
C2379      C2384   1.399       .  A
C2379      H2386   1.084       .  S
C2380      C2381   1.418       .  A
C2381      C2388   1.511       .  S
C2381      C2382   1.396       .  A
C2382      C2383   1.406       .  A
C2382      H2387   1.084       .  S
C2383      C2384   1.418       .  A
C2384      C2385   1.510       .  S
C2385      H2389   1.111       .  S
C2385      H2390   1.110       .  S
C2385      H2391   1.110       .  S
C2388      H2392   1.110       .  S
C2388      H2393   1.110       .  S
C2388      H2394   1.111       .  S
C2395      C2396   1.406       .  A
C2395      C2400   1.412       .  A
C2395      H2402   1.084       .  S
C2396      C2397   1.421       .  A
C2397      C2404   1.509       .  S
C2397      C2398   1.403       .  A
C2398      C2399   1.400       .  A
C2398      H2403   1.084       .  S
C2399      C2400   1.415       .  A
C2400      C2401   1.505       .  S
C2401      H2405   1.111       .  S
C2401      H2406   1.109       .  S
C2401      H2407   1.110       .  S
C2404      H2408   1.108       .  S
C2404      H2409   1.108       .  S
C2404      H2410   1.111       .  S
C2411      C2412   1.407       .  A
C2411      C2416   1.423       .  A
C2411      H2418   1.080       .  S
C2412      C2413   1.444       .  A
C2413      C2420   1.512       .  S
C2413      C2414   1.419       .  A
C2414      C2415   1.400       .  A
C2414      H2419   1.084       .  S
C2415      C2416   1.436       .  A
C2416      C2417   1.509       .  S
C2417      H2421   1.111       .  S
C2417      H2422   1.105       .  S
C2417      H2423   1.110       .  S
C2420      H2424   1.110       .  S
C2420      H2425   1.101       .  S
C2420      H2426   1.111       .  S
C2427      C2428   1.409       .  A
C2427      C2432   1.424       .  A
C2427      H2434   1.073       .  S
C2428      C2429   1.446       .  A
C2429      C2436   1.513       .  S
C2429      C2430   1.422       .  A
C2430      C2431   1.401       .  A
C2430      H2435   1.085       .  S
C2431      C2432   1.425       .  A
C2432      C2433   1.505       .  S
C2433      H2437   1.110       .  S
C2433      H2438   1.107       .  S
C2433      H2439   1.110       .  S
C2436      H2440   1.101       .  S
C2436      H2441   1.111       .  S
C2436      H2442   1.111       .  S
C2443      C2444   1.398       .  A
C2443      C2448   1.396       .  A
C2443      H2450   1.085       .  S
C2444      C2445   1.402       .  A
C2445      C2452   1.508       .  S
C2445      C2446   1.391       .  A
C2446      C2447   1.406       .  A
C2446      H2451   1.085       .  S
C2447      C2448   1.414       .  A
C2448      C2449   1.508       .  S
C2449      H2453   1.111       .  S
C2449      H2454   1.110       .  S
C2449      H2455   1.110       .  S
C2452      H2456   1.110       .  S
C2452      H2457   1.111       .  S
C2452      H2458   1.111       .  S
C2459      C2460   1.403       .  A
C2459      C2464   1.392       .  A
C2459      H2466   1.085       .  S
C2460      C2461   1.414       .  A
C2461      C2468   1.509       .  S
C2461      C2462   1.396       .  A
C2462      C2463   1.399       .  A
C2462      H2467   1.085       .  S
C2463      C2464   1.407       .  A
C2464      C2465   1.509       .  S
C2465      H2469   1.111       .  S
C2465      H2470   1.111       .  S
C2465      H2471   1.109       .  S
C2468      H2472   1.111       .  S
C2468      H2473   1.110       .  S
C2468      H2474   1.111       .  S
C2475      C2476   1.415       .  A
C2475      C2480   1.427       .  A
C2475      H2482   1.072       .  S
C2476      C2477   1.428       .  A
C2477      C2484   1.504       .  S
C2477      C2478   1.429       .  A
C2478      C2479   1.418       .  A
C2478      H2483   1.084       .  S
C2479      C2480   1.421       .  A
C2480      C2481   1.506       .  S
C2481      H2485   1.111       .  S
C2481      H2486   1.111       .  S
C2481      H2487   1.109       .  S
C2484      H2488   1.106       .  S
C2484      H2489   1.104       .  S
C2484      H2490   1.110       .  S
C2491      C2492   1.406       .  A
C2491      C2496   1.394       .  A
C2491      H2498   1.084       .  S
C2492      C2493   1.413       .  A
C2493      C2500   1.507       .  S
C2493      C2494   1.399       .  A
C2494      C2495   1.399       .  A
C2494      H2499   1.084       .  S
C2495      C2496   1.406       .  A
C2496      C2497   1.508       .  S
C2497      H2501   1.111       .  S
C2497      H2502   1.108       .  S
C2497      H2503   1.110       .  S
C2500      H2504   1.110       .  S
C2500      H2505   1.108       .  S
C2500      H2506   1.111       .  S
C2507      C2508   1.407       .  A
C2507      C2512   1.391       .  A
C2507      H2514   1.083       .  S
C2508      C2509   1.421       .  A
C2509      C2516   1.509       .  S
C2509      C2510   1.399       .  A
C2510      C2511   1.396       .  A
C2510      H2515   1.085       .  S
C2511      C2512   1.404       .  A
C2512      C2513   1.510       .  S
C2513      H2517   1.111       .  S
C2513      H2518   1.110       .  S
C2513      H2519   1.110       .  S
C2516      H2520   1.111       .  S
C2516      H2521   1.109       .  S
C2516      H2522   1.111       .  S
C2523      C2524   1.400       .  A
C2523      C2528   1.394       .  A
C2523      H2530   1.085       .  S
C2524      C2525   1.403       .  A
C2525      C2532   1.508       .  S
C2525      C2526   1.392       .  A
C2526      C2527   1.406       .  A
C2526      H2531   1.084       .  S
C2527      C2528   1.412       .  A
C2528      C2529   1.509       .  S
C2529      H2533   1.111       .  S
C2529      H2534   1.109       .  S
C2529      H2535   1.111       .  S
C2532      H2536   1.111       .  S
C2532      H2537   1.110       .  S
C2532      H2538   1.111       .  S
C2539      C2540   1.407       .  A
C2539      C2544   1.412       .  A
C2539      H2546   1.084       .  S
C2540      C2541   1.428       .  A
C2541      C2548   1.511       .  S
C2541      C2542   1.402       .  A
C2542      C2543   1.397       .  A
C2542      H2547   1.085       .  S
C2543      C2544   1.417       .  A
C2544      C2545   1.506       .  S
C2545      H2549   1.110       .  S
C2545      H2550   1.109       .  S
C2545      H2551   1.110       .  S
C2548      H2552   1.110       .  S
C2548      H2553   1.109       .  S
C2548      H2554   1.111       .  S
C2555      C2556   1.407       .  A
C2555      C2560   1.424       .  A
C2555      H2562   1.084       .  S
C2556      C2557   1.425       .  A
C2557      C2564   1.506       .  S
C2557      C2558   1.432       .  A
C2558      C2559   1.416       .  A
C2558      H2563   1.083       .  S
C2559      C2560   1.436       .  A
C2560      C2561   1.509       .  S
C2561      H2565   1.111       .  S
C2561      H2566   1.110       .  S
C2561      H2567   1.111       .  S
C2564      H2568   1.108       .  S
C2564      H2569   1.110       .  S
C2564      H2570   1.111       .  S
C2571      C2572   1.414       .  A
C2571      C2576   1.424       .  A
C2571      H2578   1.084       .  S
C2572      C2573   1.430       .  A
C2573      C2580   1.507       .  S
C2573      C2574   1.425       .  A
C2574      C2575   1.411       .  A
C2574      H2579   1.084       .  S
C2575      C2576   1.425       .  A
C2576      C2577   1.507       .  S
C2577      H2581   1.110       .  S
C2577      H2582   1.110       .  S
C2577      H2583   1.107       .  S
C2580      H2584   1.110       .  S
C2580      H2585   1.110       .  S
C2580      H2586   1.111       .  S
C2587      C2588   1.405       .  A
C2587      C2592   1.397       .  A
C2587      H2594   1.084       .  S
C2588      C2589   1.425       .  A
C2589      C2596   1.511       .  S
C2589      C2590   1.397       .  A
C2590      C2591   1.397       .  A
C2590      H2595   1.085       .  S
C2591      C2592   1.410       .  A
C2592      C2593   1.508       .  S
C2593      H2597   1.111       .  S
C2593      H2598   1.110       .  S
C2593      H2599   1.111       .  S
C2596      H2600   1.111       .  S
C2596      H2601   1.110       .  S
C2596      H2602   1.111       .  S
C2603      C2604   1.401       .  A
C2603      C2608   1.393       .  A
C2603      H2610   1.084       .  S
C2604      C2605   1.416       .  A
C2605      C2612   1.509       .  S
C2605      C2606   1.398       .  A
C2606      C2607   1.397       .  A
C2606      H2611   1.085       .  S
C2607      C2608   1.410       .  A
C2608      C2609   1.509       .  S
C2609      H2613   1.111       .  S
C2609      H2614   1.110       .  S
C2609      H2615   1.109       .  S
C2612      H2616   1.110       .  S
C2612      H2617   1.109       .  S
C2612      H2618   1.111       .  S
C2619      C2620   1.410       .  A
C2619      C2624   1.417       .  A
C2619      H2626   1.084       .  S
C2620      C2621   1.412       .  A
C2621      C2628   1.507       .  S
C2621      C2622   1.407       .  A
C2622      C2623   1.409       .  A
C2622      H2627   1.084       .  S
C2623      C2624   1.415       .  A
C2624      C2625   1.504       .  S
C2625      H2629   1.111   1_554  S
C2625      H2630   1.110   1_554  S
C2625      H2631   1.110       .  S
C2628      H2632   1.110       .  S
C2628      H2633   1.109       .  S
C2628      H2634   1.111       .  S
C2635      C2636   1.406       .  A
C2635      C2640   1.420       .  A
C2635      H2642   1.084       .  S
C2636      C2637   1.421       .  A
C2637      C2644   1.506       .  S
C2637      C2638   1.422       .  A
C2638      C2639   1.412       .  A
C2638      H2643   1.084       .  S
C2639      C2640   1.427       .  A
C2640      C2641   1.507       .  S
C2641      H2645   1.111       .  S
C2641      H2646   1.109       .  S
C2641      H2647   1.111       .  S
C2644      H2648   1.110       .  S
C2644      H2649   1.108       .  S
C2644      H2650   1.110       .  S
C2651      C2652   1.409       .  A
C2651      C2656   1.423       .  A
C2651      H2658   1.083       .  S
C2652      C2653   1.415       .  A
C2653      C2660   1.505       .  S
C2653      C2654   1.417       .  A
C2654      C2655   1.413       .  A
C2654      H2659   1.084       .  S
C2655      C2656   1.424       .  A
C2656      C2657   1.505       .  S
C2657      H2661   1.111       .  S
C2657      H2662   1.110       .  S
C2657      H2663   1.110       .  S
C2660      H2664   1.110       .  S
C2660      H2665   1.110       .  S
C2660      H2666   1.111       .  S
C2667      C2668   1.409       .  A
C2667      C2672   1.427       .  A
C2667      H2674   1.084       .  S
C2668      C2669   1.419       .  A
C2669      C2676   1.505       .  S
C2669      C2670   1.425       .  A
C2670      C2671   1.416       .  A
C2670      H2675   1.083       .  S
C2671      C2672   1.431       .  A
C2672      C2673   1.506       .  S
C2673      H2677   1.111       .  S
C2673      H2678   1.110       .  S
C2673      H2679   1.110       .  S
C2676      H2680   1.111       .  S
C2676      H2681   1.109   1_556  S
C2676      H2682   1.111       .  S
C2683      C2684   1.402       .  A
C2683      C2688   1.394       .  A
C2683      H2690   1.085       .  S
C2684      C2685   1.405       .  A
C2685      C2692   1.509       .  S
C2685      C2686   1.388       .  A
C2686      C2687   1.401       .  A
C2686      H2691   1.085       .  S
C2687      C2688   1.405       .  A
C2688      C2689   1.507       .  S
C2689      H2693   1.111       .  S
C2689      H2694   1.111       .  S
C2689      H2695   1.110       .  S
C2692      H2696   1.109       .  S
C2692      H2697   1.110       .  S
C2692      H2698   1.111       .  S
C2699      C2700   1.405       .  A
C2699      C2704   1.397       .  A
C2699      H2706   1.085       .  S
C2700      C2701   1.407       .  A
C2701      C2708   1.511       .  S
C2701      C2702   1.387       .  A
C2702      C2703   1.406       .  A
C2702      H2707   1.084       .  S
C2703      C2704   1.409       .  A
C2704      C2705   1.507       .  S
C2705      H2709   1.111       .  S
C2705      H2710   1.110       .  S
C2705      H2711   1.110       .  S
C2708      H2712   1.110       .  S
C2708      H2713   1.111       .  S
C2708      H2714   1.111       .  S
C2715      C2716   1.416       .  A
C2715      C2720   1.430       .  A
C2715      H2722   1.083   1_556  S
C2716      C2717   1.429       .  A
C2717      C2724   1.506       .  S
C2717      C2718   1.428       .  A
C2718      C2719   1.410       .  A
C2718      H2723   1.083       .  S
C2719      C2720   1.422       .  A
C2720      C2721   1.505       .  S
C2721      H2725   1.111       .  S
C2721      H2726   1.109   1_556  S
C2721      H2727   1.111       .  S
C2724      H2728   1.110   1_556  S
C2724      H2729   1.110       .  S
C2724      H2730   1.111       .  S
C2731      C2732   1.420       .  A
C2731      C2736   1.423       .  A
C2731      H2738   1.084       .  S
C2732      C2733   1.426       .  A
C2733      C2740   1.504       .  S
C2733      C2734   1.433       .  A
C2734      C2735   1.416       .  A
C2734      H2739   1.083       .  S
C2735      C2736   1.421       .  A
C2736      C2737   1.507       .  S
C2737      H2741   1.110       .  S
C2737      H2742   1.110       .  S
C2737      H2743   1.108       .  S
C2740      H2744   1.110       .  S
C2740      H2745   1.110       .  S
C2740      H2746   1.111       .  S
C2747      C2748   1.409       .  A
C2747      C2752   1.425       .  A
C2747      H2754   1.083       .  S
C2748      C2749   1.422       .  A
C2749      C2756   1.506       .  S
C2749      C2750   1.424       .  A
C2750      C2751   1.414       .  A
C2750      H2755   1.084       .  S
C2751      C2752   1.428       .  A
C2752      C2753   1.506       .  S
C2753      H2757   1.111       .  S
C2753      H2758   1.110       .  S
C2753      H2759   1.110       .  S
C2756      H2760   1.108       .  S
C2756      H2761   1.110       .  S
C2756      H2762   1.110       .  S
C2763      C2764   1.408       .  A
C2763      C2768   1.417       .  A
C2763      H2770   1.084       .  S
C2764      C2765   1.410       .  A
C2765      C2772   1.507       .  S
C2765      C2766   1.408       .  A
C2766      C2767   1.414       .  A
C2766      H2771   1.084       .  S
C2767      C2768   1.419       .  A
C2768      C2769   1.505       .  S
C2769      H2773   1.111       .  S
C2769      H2774   1.110       .  S
C2769      H2775   1.110   1_554  S
C2772      H2776   1.110       .  S
C2772      H2777   1.110       .  S
C2772      H2778   1.111       .  S
C2779      C2780   1.396       .  A
C2779      C2784   1.398       .  A
C2779      H2786   1.084       .  S
C2780      C2781   1.409       .  A
C2781      C2788   1.509       .  S
C2781      C2782   1.393       .  A
C2782      C2783   1.400       .  A
C2782      H2787   1.085       .  S
C2783      C2784   1.416       .  A
C2784      C2785   1.509       .  S
C2785      H2789   1.111       .  S
C2785      H2790   1.111       .  S
C2785      H2791   1.110       .  S
C2788      H2792   1.110       .  S
C2788      H2793   1.111       .  S
C2788      H2794   1.111       .  S
C2795      C2796   1.396       .  A
C2795      C2800   1.391       .  A
C2795      H2802   1.085       .  S
C2796      C2797   1.407       .  A
C2797      C2804   1.510       .  S
C2797      C2798   1.387       .  A
C2798      C2799   1.400       .  A
C2798      H2803   1.085       .  S
C2799      C2800   1.412       .  A
C2800      C2801   1.509       .  S
C2801      H2805   1.111       .  S
C2801      H2806   1.110       .  S
C2801      H2807   1.110       .  S
C2804      H2808   1.111       .  S
C2804      H2809   1.110       .  S
C2804      H2810   1.111       .  S
C2811      C2812   1.410       .  A
C2811      C2816   1.420       .  A
C2811      H2818   1.083       .  S
C2812      C2813   1.436       .  A
C2813      C2820   1.513       .  S
C2813      C2814   1.406       .  A
C2814      C2815   1.394       .  A
C2814      H2819   1.084       .  S
C2815      C2816   1.416       .  A
C2816      C2817   1.504       .  S
C2817      H2821   1.111       .  S
C2817      H2822   1.110       .  S
C2817      H2823   1.110       .  S
C2820      H2824   1.111       .  S
C2820      H2825   1.110   1_554  S
C2820      H2826   1.111       .  S
C2827      C2828   1.408       .  A
C2827      C2832   1.391       .  A
C2827      H2834   1.083       .  S
C2828      C2829   1.416       .  A
C2829      C2836   1.509       .  S
C2829      C2830   1.394       .  A
C2830      C2831   1.402       .  A
C2830      H2835   1.085       .  S
C2831      C2832   1.409       .  A
C2832      C2833   1.510       .  S
C2833      H2837   1.111       .  S
C2833      H2838   1.110       .  S
C2833      H2839   1.110       .  S
C2836      H2840   1.111       .  S
C2836      H2841   1.109       .  S
C2836      H2842   1.111       .  S
C2843      C2844   1.395       .  A
C2843      C2848   1.399       .  A
C2843      H2850   1.085       .  S
C2844      C2845   1.406       .  A
C2845      C2852   1.510       .  S
C2845      C2846   1.390       .  A
C2846      C2847   1.404       .  A
C2846      H2851   1.084       .  S
C2847      C2848   1.423       .  A
C2848      C2849   1.509       .  S
C2849      H2853   1.111       .  S
C2849      H2854   1.109       .  S
C2849      H2855   1.111       .  S
C2852      H2856   1.109       .  S
C2852      H2857   1.110       .  S
C2852      H2858   1.111       .  S
C2859      C2860   1.413       .  A
C2859      C2864   1.407       .  A
C2859      H2866   1.084       .  S
C2860      C2861   1.421       .  A
C2861      C2868   1.505       .  S
C2861      C2862   1.419       .  A
C2862      C2863   1.408       .  A
C2862      H2867   1.084       .  S
C2863      C2864   1.410       .  A
C2864      C2865   1.507       .  S
C2865      H2869   1.111       .  S
C2865      H2870   1.110       .  S
C2865      H2871   1.110   1_554  S
C2868      H2872   1.110       .  S
C2868      H2873   1.110       .  S
C2868      H2874   1.111       .  S
C2875      C2876   1.407       .  A
C2875      C2880   1.420       .  A
C2875      H2882   1.084       .  S
C2876      C2877   1.418       .  A
C2877      C2884   1.505       .  S
C2877      C2878   1.421       .  A
C2878      C2879   1.412       .  A
C2878      H2883   1.084       .  S
C2879      C2880   1.422       .  A
C2880      C2881   1.504       .  S
C2881      H2885   1.111       .  S
C2881      H2886   1.109       .  S
C2881      H2887   1.110       .  S
C2884      H2888   1.110       .  S
C2884      H2889   1.110       .  S
C2884      H2890   1.111       .  S
C2891      C2892   1.414   1_554  A
C2891      C2896   1.433       .  A
C2891      H2898   1.083   1_554  S
C2892      C2893   1.420       .  A
C2893      C2900   1.504       .  S
C2893      C2894   1.429   1_556  A
C2894      C2895   1.417       .  A
C2894      H2899   1.084       .  S
C2895      C2896   1.428       .  A
C2896      C2897   1.505       .  S
C2897      H2901   1.111       .  S
C2897      H2902   1.110       .  S
C2897      H2903   1.111   1_554  S
C2900      H2904   1.110   1_556  S
C2900      H2905   1.110       .  S
C2900      H2906   1.111       .  S
C2907      C2908   1.410       .  A
C2907      C2912   1.427       .  A
C2907      H2914   1.084       .  S
C2908      C2909   1.424       .  A
C2909      C2916   1.505       .  S
C2909      C2910   1.431       .  A
C2910      C2911   1.417       .  A
C2910      H2915   1.083       .  S
C2911      C2912   1.429       .  A
C2912      C2913   1.507   1_556  S
C2913      H2917   1.111       .  S
C2913      H2918   1.109       .  S
C2913      H2919   1.111   1_554  S
C2916      H2920   1.110       .  S
C2916      H2921   1.109       .  S
C2916      H2922   1.111       .  S
C2923      C2924   1.418       .  A
C2923      C2928   1.426       .  A
C2923      H2930   1.084       .  S
C2924      C2925   1.415       .  A
C2925      C2932   1.508       .  S
C2925      C2926   1.418       .  A
C2926      C2927   1.425       .  A
C2926      H2931   1.081       .  S
C2927      C2928   1.426       .  A
C2928      C2929   1.503       .  S
C2929      H2933   1.111       .  S
C2929      H2934   1.103       .  S
C2929      H2935   1.110       .  S
C2932      H2936   1.111       .  S
C2932      H2937   1.109       .  S
C2932      H2938   1.111       .  S
C2939      C2940   1.402       .  A
C2939      C2944   1.422       .  A
C2939      H2946   1.085       .  S
C2940      C2941   1.428       .  A
C2941      C2948   1.508       .  S
C2941      C2942   1.428       .  A
C2942      C2943   1.413       .  A
C2942      H2947   1.076       .  S
C2943      C2944   1.444       .  A
C2944      C2945   1.513       .  S
C2945      H2949   1.111       .  S
C2945      H2950   1.100       .  S
C2945      H2951   1.110       .  S
C2948      H2952   1.109       .  S
C2948      H2953   1.111       .  S
C2948      H2954   1.111       .  S
C2955      C2956   1.397       .  A
C2955      C2960   1.398       .  A
C2955      H2962   1.084       .  S
C2956      C2957   1.410       .  A
C2957      C2964   1.511       .  S
C2957      C2958   1.391       .  A
C2958      C2959   1.401       .  A
C2958      H2963   1.085       .  S
C2959      C2960   1.414       .  A
C2960      C2961   1.508       .  S
C2961      H2965   1.111       .  S
C2961      H2966   1.109       .  S
C2961      H2967   1.111       .  S
C2964      H2968   1.110       .  S
C2964      H2969   1.110       .  S
C2964      H2970   1.111       .  S
C2971      C2972   1.410       .  A
C2971      C2976   1.396       .  A
C2971      H2978   1.084       .  S
C2972      C2973   1.414       .  A
C2973      C2980   1.508       .  S
C2973      C2974   1.401       .  A
C2974      C2975   1.404       .  A
C2974      H2979   1.085       .  S
C2975      C2976   1.401       .  A
C2976      C2977   1.506       .  S
C2977      H2981   1.111       .  S
C2977      H2982   1.110       .  S
C2977      H2983   1.110       .  S
C2980      H2984   1.111       .  S
C2980      H2985   1.109       .  S
C2980      H2986   1.110       .  S
C2987      C2988   1.416       .  A
C2987      C2992   1.419       .  A
C2987      H2994   1.083       .  S
C2988      C2989   1.427       .  A
C2989      C2996   1.505       .  S
C2989      C2990   1.427       .  A
C2990      C2991   1.410       .  A
C2990      H2995   1.083       .  S
C2991      C2992   1.415       .  A
C2992      C2993   1.506       .  S
C2993      H2997   1.111       .  S
C2993      H2998   1.110       .  S
C2993      H2999   1.110       .  S
C2996      H3000   1.110       .  S
C2996      H3001   1.110       .  S
C2996      H3002   1.111       .  S
C3003      C3004   1.411       .  A
C3003      C3008   1.434       .  A
C3003      H3010   1.083       .  S
C3004      C3005   1.427       .  A
C3005      C3012   1.504       .  S
C3005      C3006   1.440       .  A
C3006      C3007   1.420       .  A
C3006      H3011   1.083       .  S
C3007      C3008   1.440       .  A
C3008      C3009   1.507       .  S
C3009      H3013   1.111       .  S
C3009      H3014   1.110       .  S
C3009      H3015   1.110       .  S
C3012      H3016   1.110       .  S
C3012      H3017   1.109       .  S
C3012      H3018   1.110       .  S
C3019      C3020   1.417       .  A
C3019      C3024   1.439       .  A
C3019      H3026   1.083       .  S
C3020      C3021   1.421       .  A
C3021      C3028   1.505       .  S
C3021      C3022   1.432       .  A
C3022      C3023   1.422       .  A
C3022      H3027   1.083       .  S
C3023      C3024   1.430       .  A
C3024      C3025   1.504       .  S
C3025      H3029   1.111       .  S
C3025      H3030   1.110       .  S
C3025      H3031   1.110       .  S
C3028      H3032   1.110       .  S
C3028      H3033   1.109       .  S
C3028      H3034   1.111       .  S
C3035      C3036   1.404       .  A
C3035      C3040   1.394       .  A
C3035      H3042   1.085       .  S
C3036      C3037   1.407       .  A
C3037      C3044   1.508       .  S
C3037      C3038   1.396       .  A
C3038      C3039   1.409       .  A
C3038      H3043   1.084       .  S
C3039      C3040   1.413       .  A
C3040      C3041   1.509       .  S
C3041      H3045   1.111       .  S
C3041      H3046   1.110       .  S
C3041      H3047   1.110       .  S
C3044      H3048   1.111       .  S
C3044      H3049   1.110       .  S
C3044      H3050   1.111       .  S
C3051      C3052   1.403       .  A
C3051      C3056   1.390       .  A
C3051      H3058   1.082       .  S
C3052      C3053   1.414       .  A
C3053      C3060   1.509       .  S
C3053      C3054   1.396       .  A
C3054      C3055   1.400       .  A
C3054      H3059   1.085       .  S
C3055      C3056   1.408       .  A
C3056      C3057   1.510       .  S
C3057      H3061   1.111       .  S
C3057      H3062   1.111       .  S
C3057      H3063   1.109       .  S
C3060      H3064   1.109       .  S
C3060      H3065   1.110       .  S
C3060      H3066   1.111       .  S
C3067      C3068   1.412   1_655  A
C3067      C3072   1.400       .  A
C3067      H3074   1.084       .  S
C3068      C3069   1.416       .  A
C3069      C3076   1.504       .  S
C3069      C3070   1.416       .  A
C3070      C3071   1.409   1_455  A
C3070      H3075   1.084       .  S
C3071      C3072   1.410       .  A
C3072      C3073   1.509       .  S
C3073      H3077   1.110   1_655  S
C3073      H3078   1.110       .  S
C3073      H3079   1.108       .  S
C3076      H3080   1.110   1_455  S
C3076      H3081   1.110       .  S
C3076      H3082   1.111       .  S
C3083      C3084   1.405       .  A
C3083      C3088   1.406       .  A
C3083      H3090   1.084       .  S
C3084      C3085   1.422       .  A
C3085      C3092   1.509       .  S
C3085      C3086   1.404       .  A
C3086      C3087   1.398       .  A
C3086      H3091   1.084       .  S
C3087      C3088   1.412       .  A
C3088      C3089   1.506       .  S
C3089      H3093   1.111       .  S
C3089      H3094   1.110       .  S
C3089      H3095   1.110       .  S
C3092      H3096   1.110       .  S
C3092      H3097   1.109       .  S
C3092      H3098   1.111       .  S
C3099      C3100   1.402       .  A
C3099      C3104   1.408       .  A
C3099      H3106   1.084       .  S
C3100      C3101   1.411       .  A
C3101      C3108   1.505       .  S
C3101      C3102   1.407       .  A
C3102      C3103   1.407       .  A
C3102      H3107   1.084       .  S
C3103      C3104   1.422       .  A
C3104      C3105   1.509       .  S
C3105      H3109   1.111       .  S
C3105      H3110   1.111       .  S
C3105      H3111   1.109       .  S
C3108      H3112   1.110       .  S
C3108      H3113   1.110       .  S
C3108      H3114   1.111       .  S
C3115      C3116   1.412       .  A
C3115      C3120   1.419       .  A
C3115      H3122   1.084       .  S
C3116      C3117   1.424   1_455  A
C3117      C3124   1.507       .  S
C3117      C3118   1.418       .  A
C3118      C3119   1.405       .  A
C3118      H3123   1.084       .  S
C3119      C3120   1.419   1_655  A
C3120      C3121   1.506       .  S
C3121      H3125   1.110   1_455  S
C3121      H3126   1.110       .  S
C3121      H3127   1.108       .  S
C3124      H3128   1.111   1_655  S
C3124      H3129   1.109       .  S
C3124      H3130   1.111       .  S
C3131      C3132   1.405       .  A
C3131      C3136   1.400       .  A
C3131      H3138   1.084       .  S
C3132      C3133   1.408       .  A
C3133      C3140   1.509       .  S
C3133      C3134   1.397       .  A
C3134      C3135   1.411       .  A
C3134      H3139   1.084       .  S
C3135      C3136   1.416       .  A
C3136      C3137   1.509       .  S
C3137      H3141   1.111       .  S
C3137      H3142   1.110       .  S
C3137      H3143   1.110       .  S
C3140      H3144   1.110       .  S
C3140      H3145   1.109       .  S
C3140      H3146   1.111       .  S
C3147      C3148   1.404       .  A
C3147      C3152   1.396       .  A
C3147      H3154   1.084       .  S
C3148      C3149   1.413       .  A
C3149      C3156   1.508       .  S
C3149      C3150   1.397       .  A
C3150      C3151   1.400       .  A
C3150      H3155   1.085       .  S
C3151      C3152   1.408       .  A
C3152      C3153   1.508       .  S
C3153      H3157   1.111       .  S
C3153      H3158   1.110       .  S
C3153      H3159   1.110       .  S
C3156      H3160   1.110       .  S
C3156      H3161   1.110       .  S
C3156      H3162   1.111       .  S
C3163      C3164   1.413       .  A
C3163      C3168   1.422       .  A
C3163      H3170   1.084       .  S
C3164      C3165   1.431       .  A
C3165      C3172   1.508       .  S
C3165      C3166   1.422       .  A
C3166      C3167   1.406       .  A
C3166      H3171   1.084       .  S
C3167      C3168   1.421       .  A
C3168      C3169   1.505   1_655  S
C3169      H3173   1.110       .  S
C3169      H3174   1.108       .  S
C3169      H3175   1.110   1_455  S
C3172      H3176   1.111       .  S
C3172      H3177   1.109       .  S
C3172      H3178   1.111       .  S
C3179      C3180   1.405       .  A
C3179      C3184   1.412       .  A
C3179      H3186   1.084       .  S
C3180      C3181   1.425       .  A
C3181      C3188   1.505       .  S
C3181      C3182   1.426       .  A
C3182      C3183   1.409       .  A
C3182      H3187   1.083       .  S
C3183      C3184   1.424       .  A
C3184      C3185   1.509       .  S
C3185      H3189   1.111       .  S
C3185      H3190   1.109       .  S
C3185      H3191   1.108       .  S
C3188      H3192   1.110       .  S
C3188      H3193   1.108       .  S
C3188      H3194   1.111       .  S
C3195      C3196   1.403       .  A
C3195      C3200   1.415       .  A
C3195      H3202   1.084       .  S
C3196      C3197   1.421       .  A
C3197      C3204   1.505       .  S
C3197      C3198   1.423       .  A
C3198      C3199   1.409       .  A
C3198      H3203   1.083       .  S
C3199      C3200   1.426       .  A
C3200      C3201   1.508       .  S
C3201      H3205   1.111       .  S
C3201      H3206   1.110       .  S
C3201      H3207   1.107       .  S
C3204      H3208   1.110       .  S
C3204      H3209   1.110       .  S
C3204      H3210   1.111       .  S
C3211      C3212   1.419   1_455  A
C3211      C3216   1.438       .  A
C3211      H3218   1.083       .  S
C3212      C3213   1.424       .  A
C3213      C3220   1.507       .  S
C3213      C3214   1.426       .  A
C3214      C3215   1.419       .  A
C3214      H3219   1.084       .  S
C3215      C3216   1.428   1_655  A
C3216      C3217   1.504       .  S
C3217      H3221   1.111       .  S
C3217      H3222   1.110       .  S
C3217      H3223   1.110   1_455  S
C3220      H3224   1.108       .  S
C3220      H3225   1.110       .  S
C3220      H3226   1.110       .  S
C3227      C3228   1.395       .  A
C3227      C3232   1.398       .  A
C3227      H3234   1.085       .  S
C3228      C3229   1.406       .  A
C3229      C3236   1.508       .  S
C3229      C3230   1.395       .  A
C3230      C3231   1.405       .  A
C3230      H3235   1.084       .  S
C3231      C3232   1.422       .  A
C3232      C3233   1.510       .  S
C3233      H3237   1.111       .  S
C3233      H3238   1.110       .  S
C3233      H3239   1.110       .  S
C3236      H3240   1.111       .  S
C3236      H3241   1.110       .  S
C3236      H3242   1.111       .  S
C3243      C3244   1.407       .  A
C3243      C3248   1.397       .  A
C3243      H3250   1.084       .  S
C3244      C3245   1.416       .  A
C3245      C3252   1.509       .  S
C3245      C3246   1.396       .  A
C3246      C3247   1.401       .  A
C3246      H3251   1.085       .  S
C3247      C3248   1.409       .  A
C3248      C3249   1.509       .  S
C3249      H3253   1.111       .  S
C3249      H3254   1.110       .  S
C3249      H3255   1.109       .  S
C3252      H3256   1.110       .  S
C3252      H3257   1.110       .  S
C3252      H3258   1.111       .  S
C3259      C3260   1.396       .  A
C3259      C3264   1.403       .  A
C3259      H3266   1.084       .  S
C3260      C3261   1.418       .  A
C3261      C3268   1.506   1_455  S
C3261      C3262   1.413       .  A
C3262      C3263   1.408       .  A
C3262      H3267   1.084       .  S
C3263      C3264   1.428       .  A
C3264      C3265   1.511       .  S
C3265      H3269   1.111   1_455  S
C3265      H3270   1.110   1_455  S
C3265      H3271   1.109       .  S
C3268      H3272   1.110       .  S
C3268      H3273   1.109       .  S
C3268      H3274   1.110   1_655  S
C3275      C3276   1.397       .  A
C3275      C3280   1.401       .  A
C3275      H3282   1.084       .  S
C3276      C3277   1.410       .  A
C3277      C3284   1.506       .  S
C3277      C3278   1.404       .  A
C3278      C3279   1.406       .  A
C3278      H3283   1.084       .  S
C3279      C3280   1.422       .  A
C3280      C3281   1.510       .  S
C3281      H3285   1.111       .  S
C3281      H3286   1.110       .  S
C3281      H3287   1.110       .  S
C3284      H3288   1.110       .  S
C3284      H3289   1.111       .  S
C3284      H3290   1.111       .  S
C3291      C3292   1.405       .  A
C3291      C3296   1.403       .  A
C3291      H3298   1.084       .  S
C3292      C3293   1.420       .  A
C3293      C3300   1.509       .  S
C3293      C3294   1.402       .  A
C3294      C3295   1.398       .  A
C3294      H3299   1.084       .  S
C3295      C3296   1.410       .  A
C3296      C3297   1.506       .  S
C3297      H3301   1.111       .  S
C3297      H3302   1.110       .  S
C3297      H3303   1.110       .  S
C3300      H3304   1.109       .  S
C3300      H3305   1.111       .  S
C3300      H3306   1.111       .  S
C3307      C3308   1.406       .  A
C3307      C3312   1.418       .  A
C3307      H3314   1.084   1_455  S
C3308      C3309   1.421       .  A
C3309      C3316   1.506       .  S
C3309      C3310   1.421       .  A
C3310      C3311   1.413       .  A
C3310      H3315   1.084       .  S
C3311      C3312   1.426       .  A
C3312      C3313   1.508   1_455  S
C3313      H3317   1.111       .  S
C3313      H3318   1.109       .  S
C3313      H3319   1.110   1_655  S
C3316      H3320   1.108       .  S
C3316      H3321   1.110       .  S
C3316      H3322   1.110       .  S
C3323      C3324   1.411       .  A
C3323      C3328   1.397       .  A
C3323      H3330   1.084       .  S
C3324      C3325   1.415       .  A
C3325      C3332   1.508       .  S
C3325      C3326   1.399       .  A
C3326      C3327   1.402       .  A
C3326      H3331   1.085       .  S
C3327      C3328   1.405       .  A
C3328      C3329   1.508       .  S
C3329      H3333   1.111       .  S
C3329      H3334   1.109       .  S
C3329      H3335   1.110       .  S
C3332      H3336   1.110       .  S
C3332      H3337   1.110       .  S
C3332      H3338   1.111       .  S
C3339      C3340   1.407       .  A
C3339      C3344   1.397       .  A
C3339      H3346   1.084       .  S
C3340      C3341   1.416       .  A
C3341      C3348   1.510       .  S
C3341      C3342   1.395       .  A
C3342      C3343   1.401       .  A
C3342      H3347   1.085       .  S
C3343      C3344   1.409       .  A
C3344      C3345   1.508       .  S
C3345      H3349   1.111       .  S
C3345      H3350   1.111       .  S
C3345      H3351   1.110       .  S
C3348      H3352   1.110       .  S
C3348      H3353   1.110       .  S
C3348      H3354   1.111       .  S
C3355      C3356   1.416       .  A
C3355      C3360   1.436       .  A
C3355      H3362   1.083       .  S
C3356      C3357   1.436       .  A
C3357      C3364   1.508       .  S
C3357      C3358   1.430       .  A
C3358      C3359   1.409       .  A
C3358      H3363   1.084       .  S
C3359      C3360   1.429       .  A
C3360      C3361   1.505       .  S
C3361      H3365   1.110       .  S
C3361      H3366   1.110   1_655  S
C3361      H3367   1.108       .  S
C3364      H3368   1.109   1_655  S
C3364      H3369   1.110       .  S
C3364      H3370   1.111       .  S
C3371      C3372   1.412   1_455  A
C3371      C3376   1.422       .  A
C3371      H3378   1.084       .  S
C3372      C3373   1.428       .  A
C3373      C3380   1.508       .  S
C3373      C3374   1.419       .  A
C3374      C3375   1.405       .  A
C3374      H3379   1.084       .  S
C3375      C3376   1.421   1_655  A
C3376      C3377   1.505       .  S
C3377      H3381   1.110       .  S
C3377      H3382   1.110   1_455  S
C3377      H3383   1.108       .  S
C3380      H3384   1.110       .  S
C3380      H3385   1.109   1_655  S
C3380      H3386   1.111       .  S
C3387      C3388   1.408       .  A
C3387      C3392   1.412       .  A
C3387      H3394   1.083       .  S
C3388      C3389   1.410       .  A
C3389      C3396   1.507       .  S
C3389      C3390   1.389       .  A
C3390      C3391   1.404       .  A
C3390      H3395   1.084       .  S
C3391      C3392   1.414       .  A
C3392      C3393   1.505   1_556  S
C3393      H3397   1.111       .  S
C3393      H3398   1.110   1_554  S
C3393      H3399   1.110       .  S
C3396      H3400   1.103       .  S
C3396      H3401   1.110       .  S
C3396      H3402   1.111       .  S
C3403      C3404   1.404   1_554  A
C3403      C3408   1.390       .  A
C3403      H3410   1.079       .  S
C3404      C3405   1.414       .  A
C3405      C3412   1.505       .  S
C3405      C3406   1.405       .  A
C3406      C3407   1.402       .  A
C3406      H3411   1.084       .  S
C3407      C3408   1.406   1_556  A
C3408      C3409   1.511       .  S
C3409      H3413   1.111       .  S
C3409      H3414   1.110       .  S
C3409      H3415   1.110       .  S
C3412      H3416   1.110       .  S
C3412      H3417   1.109       .  S
C3412      H3418   1.111       .  S
C3419      C3420   1.417       .  A
C3419      C3424   1.430       .  A
C3419      H3426   1.075       .  S
C3420      C3421   1.433   1_455  A
C3421      C3428   1.502       .  S
C3421      C3422   1.437       .  A
C3422      C3423   1.414   1_655  A
C3422      H3427   1.084       .  S
C3423      C3424   1.422       .  A
C3424      C3425   1.506       .  S
C3425      H3429   1.111       .  S
C3425      H3430   1.109       .  S
C3425      H3431   1.111       .  S
C3428      H3432   1.108       .  S
C3428      H3433   1.107       .  S
C3428      H3434   1.110       .  S
C3435      C3436   1.409       .  A
C3435      C3440   1.417       .  A
C3435      H3442   1.079       .  S
C3436      C3437   1.429   1_655  A
C3437      C3444   1.505       .  S
C3437      C3438   1.425       .  A
C3438      C3439   1.409   1_455  A
C3438      H3443   1.084       .  S
C3439      C3440   1.422       .  A
C3440      C3441   1.509       .  S
C3441      H3445   1.111       .  S
C3441      H3446   1.109       .  S
C3441      H3447   1.110       .  S
C3444      H3448   1.107       .  S
C3444      H3449   1.107       .  S
C3444      H3450   1.110       .  S
C3451      C3452   1.417       .  A
C3451      C3456   1.442       .  A
C3451      H3458   1.084       .  S
C3452      C3453   1.421       .  A
C3453      C3460   1.505       .  S
C3453      C3454   1.435       .  A
C3454      C3455   1.432       .  A
C3454      H3459   1.083       .  S
C3455      C3456   1.435       .  A
C3456      C3457   1.488       .  S
C3457      H3461   1.111   1_554  S
C3457      H3462   1.109   1_554  S
C3457      H3463   1.108       .  S
C3460      H3464   1.109       .  S
C3460      H3465   1.111       .  S
C3460      H3466   1.111       .  S
C3467      C3468   1.427   1_556  A
C3467      C3472   1.445       .  A
C3467      H3474   1.083       .  S
C3468      C3469   1.422       .  A
C3469      C3476   1.506       .  S
C3469      C3470   1.433       .  A
C3470      C3471   1.430       .  A
C3470      H3475   1.080       .  S
C3471      C3472   1.432   1_554  A
C3472      C3473   1.501       .  S
C3473      H3477   1.111       .  S
C3473      H3478   1.110       .  S
C3473      H3479   1.104       .  S
C3476      H3480   1.110       .  S
C3476      H3481   1.110       .  S
C3476      H3482   1.111       .  S
C3483      C3484   1.405       .  A
C3483      C3488   1.395       .  A
C3483      H3490   1.083       .  S
C3484      C3485   1.412       .  A
C3485      C3492   1.505   1_545  S
C3485      C3486   1.401       .  A
C3486      C3487   1.402       .  A
C3486      H3491   1.085   1_545  S
C3487      C3488   1.406       .  A
C3488      C3489   1.509       .  S
C3489      H3493   1.111       .  S
C3489      H3494   1.110       .  S
C3489      H3495   1.110       .  S
C3492      H3496   1.107       .  S
C3492      H3497   1.110       .  S
C3492      H3498   1.110       .  S
C3499      C3500   1.410       .  A
C3499      C3504   1.406   1_565  A
C3499      H3506   1.083   1_565  S
C3500      C3501   1.426       .  A
C3501      C3508   1.510       .  S
C3501      C3502   1.402       .  A
C3502      C3503   1.397       .  A
C3502      H3507   1.084       .  S
C3503      C3504   1.410   1_565  A
C3504      C3505   1.506       .  S
C3505      H3509   1.111       .  S
C3505      H3510   1.111       .  S
C3505      H3511   1.108       .  S
C3508      H3512   1.110       .  S
C3508      H3513   1.110       .  S
C3508      H3514   1.111       .  S
C3515      C3516   1.408       .  A
C3515      C3520   1.394       .  A
C3515      H3522   1.082       .  S
C3516      C3517   1.415       .  A
C3517      C3524   1.505   1_556  S
C3517      C3518   1.401       .  A
C3518      C3519   1.401       .  A
C3518      H3523   1.085   1_556  S
C3519      C3520   1.405       .  A
C3520      C3521   1.509       .  S
C3521      H3525   1.111       .  S
C3521      H3526   1.110       .  S
C3521      H3527   1.111       .  S
C3524      H3528   1.108       .  S
C3524      H3529   1.110       .  S
C3524      H3530   1.111       .  S
C3531      C3532   1.400       .  A
C3531      C3536   1.404       .  A
C3531      H3538   1.084       .  S
C3532      C3533   1.409       .  A
C3533      C3540   1.509       .  S
C3533      C3534   1.391       .  A
C3534      C3535   1.403       .  A
C3534      H3539   1.084       .  S
C3535      C3536   1.417       .  A
C3536      C3537   1.507   1_556  S
C3537      H3541   1.111       .  S
C3537      H3542   1.110   1_554  S
C3537      H3543   1.109       .  S
C3540      H3544   1.108       .  S
C3540      H3545   1.111       .  S
C3540      H3546   1.110       .  S
C3547      C3548   1.396       .  A
C3547      C3552   1.413   1_455  A
C3547      H3554   1.085       .  S
C3548      C3549   1.434       .  A
C3549      C3556   1.506       .  S
C3549      C3550   1.435       .  A
C3550      C3551   1.411   1_455  A
C3550      H3555   1.080   1_455  S
C3551      C3552   1.451       .  A
C3552      C3553   1.519   1_655  S
C3553      H3557   1.111       .  S
C3553      H3558   1.099       .  S
C3553      H3559   1.111   1_455  S
C3556      H3560   1.110       .  S
C3556      H3561   1.110   1_455  S
C3556      H3562   1.111       .  S
C3563      C3564   1.407   1_455  A
C3563      C3568   1.419       .  A
C3563      H3570   1.080       .  S
C3564      C3565   1.431       .  A
C3565      C3572   1.507       .  S
C3565      C3566   1.432       .  A
C3566      C3567   1.415       .  A
C3566      H3571   1.084       .  S
C3567      C3568   1.430   1_655  A
C3568      C3569   1.509       .  S
C3569      H3573   1.111       .  S
C3569      H3574   1.109       .  S
C3569      H3575   1.110       .  S
C3572      H3576   1.109       .  S
C3572      H3577   1.110       .  S
C3572      H3578   1.110       .  S
C3579      C3580   1.418   1_556  A
C3579      C3584   1.446       .  A
C3579      H3586   1.080       .  S
C3580      C3581   1.452       .  A
C3581      C3588   1.515       .  S
C3581      C3582   1.429       .  A
C3582      C3583   1.405   1_554  A
C3582      H3587   1.084       .  S
C3583      C3584   1.438       .  A
C3584      C3585   1.504       .  S
C3585      H3589   1.111       .  S
C3585      H3590   1.110   1_556  S
C3585      H3591   1.109       .  S
C3588      H3592   1.111       .  S
C3588      H3593   1.099       .  S
C3588      H3594   1.111   1_554  S
C3595      C3596   1.404       .  A
C3595      C3600   1.431       .  A
C3595      H3602   1.084       .  S
C3596      C3597   1.437       .  A
C3597      C3604   1.505   1_554  S
C3597      C3598   1.446       .  A
C3598      C3599   1.419       .  A
C3598      H3603   1.081   1_554  S
C3599      C3600   1.453       .  A
C3600      C3601   1.513       .  S
C3601      H3605   1.111       .  S
C3601      H3606   1.099       .  S
C3601      H3607   1.110       .  S
C3604      H3608   1.109       .  S
C3604      H3609   1.111   1_556  S
C3604      H3610   1.111       .  S
C3611      C3612   1.402       .  A
C3611      C3616   1.396       .  A
C3611      H3618   1.083       .  S
C3612      C3613   1.406       .  A
C3613      C3620   1.506   1_545  S
C3613      C3614   1.396       .  A
C3614      C3615   1.410       .  A
C3614      H3619   1.084   1_545  S
C3615      C3616   1.420       .  A
C3616      C3617   1.510       .  S
C3617      H3621   1.111       .  S
C3617      H3622   1.110       .  S
C3617      H3623   1.110       .  S
C3620      H3624   1.110       .  S
C3620      H3625   1.108       .  S
C3620      H3626   1.110       .  S
C3627      C3628   1.411       .  A
C3627      C3632   1.399       .  A
C3627      H3634   1.083       .  S
C3628      C3629   1.425       .  A
C3629      C3636   1.509   1_565  S
C3629      C3630   1.405       .  A
C3630      C3631   1.398       .  A
C3630      H3635   1.084   1_565  S
C3631      C3632   1.405       .  A
C3632      C3633   1.507       .  S
C3633      H3637   1.111       .  S
C3633      H3638   1.108       .  S
C3633      H3639   1.111       .  S
C3636      H3640   1.110   1_545  S
C3636      H3641   1.110       .  S
C3636      H3642   1.111       .  S
C3643      C3644   1.418       .  A
C3643      C3648   1.437       .  A
C3643      H3650   1.071       .  S
C3644      C3645   1.447       .  A
C3645      C3652   1.513   1_545  S
C3645      C3646   1.427       .  A
C3646      C3647   1.405       .  A
C3646      H3651   1.084   1_545  S
C3647      C3648   1.427       .  A
C3648      C3649   1.506       .  S
C3649      H3653   1.111       .  S
C3649      H3654   1.109   1_545  S
C3649      H3655   1.110       .  S
C3652      H3656   1.100       .  S
C3652      H3657   1.110   1_565  S
C3652      H3658   1.111       .  S
C3659      C3660   1.401       .  A
C3659      C3664   1.402       .  A
C3659      H3666   1.084   1_455  S
C3660      C3661   1.409       .  A
C3661      C3668   1.510       .  S
C3661      C3662   1.387       .  A
C3662      C3663   1.402       .  A
C3662      H3667   1.085       .  S
C3663      C3664   1.411       .  A
C3664      C3665   1.506   1_455  S
C3665      H3669   1.111       .  S
C3665      H3670   1.110   1_655  S
C3665      H3671   1.109       .  S
C3668      H3672   1.108       .  S
C3668      H3673   1.111       .  S
C3668      H3674   1.111       .  S
C3675      C3676   1.405       .  A
C3675      C3680   1.428       .  A
C3675      H3682   1.084       .  S
C3676      C3677   1.428   1_565  A
C3677      C3684   1.506       .  S
C3677      C3678   1.439   1_545  A
C3678      C3679   1.419       .  A
C3678      H3683   1.076   1_565  S
C3679      C3680   1.447       .  A
C3680      C3681   1.512       .  S
C3681      H3685   1.110       .  S
C3681      H3686   1.111       .  S
C3681      H3687   1.100       .  S
C3684      H3688   1.109       .  S
C3684      H3689   1.111   1_545  S
C3684      H3690   1.111       .  S
C3691      C3692   1.398       .  A
C3691      C3696   1.392       .  A
C3691      H3698   1.085       .  S
C3692      C3693   1.405   1_655  A
C3693      C3700   1.506       .  S
C3693      C3694   1.396       .  A
C3694      C3695   1.403   1_455  A
C3694      H3699   1.084       .  S
C3695      C3696   1.411       .  A
C3696      C3697   1.508       .  S
C3697      H3701   1.111       .  S
C3697      H3702   1.107       .  S
C3697      H3703   1.110       .  S
C3700      H3704   1.111       .  S
C3700      H3705   1.109       .  S
C3700      H3706   1.111       .  S
C3707      C3708   1.406       .  A
C3707      C3712   1.414       .  A
C3707      H3714   1.083       .  S
C3708      C3709   1.411   1_545  A
C3709      C3716   1.507       .  S
C3709      C3710   1.402       .  A
C3710      C3711   1.404   1_565  A
C3710      H3715   1.085       .  S
C3711      C3712   1.415       .  A
C3712      C3713   1.505       .  S
C3713      H3717   1.111       .  S
C3713      H3718   1.110       .  S
C3713      H3719   1.111       .  S
C3716      H3720   1.111   1_565  S
C3716      H3721   1.108       .  S
C3716      H3722   1.111       .  S
C3723      C3724   1.412       .  A
C3723      C3728   1.423       .  A
C3723      H3730   1.064       .  S
C3724      C3725   1.444       .  A
C3725      C3732   1.512       .  S
C3725      C3726   1.423       .  A
C3726      C3727   1.402       .  A
C3726      H3731   1.084       .  S
C3727      C3728   1.422       .  A
C3728      C3729   1.510       .  S
C3729      H3733   1.111       .  S
C3729      H3734   1.109       .  S
C3729      H3735   1.111   1_655  S
C3732      H3736   1.111       .  S
C3732      H3737   1.101       .  S
C3732      H3738   1.111   1_655  S
C3739      C3740   1.403   1_565  A
C3739      C3744   1.410       .  A
C3739      H3746   1.084       .  S
C3740      C3741   1.417       .  A
C3741      C3748   1.508       .  S
C3741      C3742   1.406       .  A
C3742      C3743   1.403       .  A
C3742      H3747   1.084       .  S
C3743      C3744   1.419   1_545  A
C3744      C3745   1.507       .  S
C3745      H3749   1.111       .  S
C3745      H3750   1.109       .  S
C3745      H3751   1.111       .  S
C3748      H3752   1.110       .  S
C3748      H3753   1.107       .  S
C3748      H3754   1.111       .  S
C3755      C3756   1.413       .  A
C3755      C3760   1.419       .  A
C3755      H3762   1.077       .  S
C3756      C3757   1.428   1_655  A
C3757      C3764   1.507       .  S
C3757      C3758   1.425       .  A
C3758      C3759   1.414       .  A
C3758      H3763   1.084       .  S
C3759      C3760   1.420   1_455  A
C3760      C3761   1.508       .  S
C3761      H3765   1.111       .  S
C3761      H3766   1.111       .  S
C3761      H3767   1.109       .  S
C3764      H3768   1.106       .  S
C3764      H3769   1.110       .  S
C3764      H3770   1.110       .  S
