geometry optimzed in LAMMPS
_audit_creation_date              2020-12-01 
_audit_creation_method            'lammps2cif' 
_symmetry_space_group_name_H-M    'P1' 
_symmetry_Int_Tables_number       1 
_symmetry_cell_setting            triclinic 
loop_ 
_symmetry_equiv_pos_as_xyz 
  x,y,z 
_cell_length_a                    68.05108861 
_cell_length_b                    27.284017358476074 
_cell_length_c                    32.852336027246494 
_cell_angle_alpha                 90.19242495269842 
_cell_angle_beta                  89.73621070328367 
_cell_angle_gamma                 90.23321460400145 
loop_ 
_atom_site_label 
_atom_site_type_symbol 
_atom_site_fract_x 
_atom_site_fract_y 
_atom_site_fract_z 
_atom_site_charge 
O1          O  0.80408063  0.79820848  0.77434365    -0.85600
O2          O  0.77945061  0.72698463  0.74454636    -0.82600
C3          C  0.76305720  0.74107809  0.75901285     0.97900
O4          O  0.75539160  0.77996896  0.74612013    -0.82700
O5          O  0.75105455  0.87053381  0.70928851    -0.85300
C6          C  0.75892956  0.90196034  0.73240798     1.02400
O7          O  0.77610904  0.89558593  0.74429857    -0.78100
O8          O  0.81374607  0.86866898  0.74989202    -0.78300
C9          C  0.81141586  0.84011584  0.77977808     1.02400
O10         O  0.82666547  0.80092370  0.70005131    -0.85600
O11         O  0.79883173  0.73560740  0.66696577    -0.82600
C12         C  0.78237633  0.71782932  0.65696480     0.97900
O13         O  0.76653652  0.73747723  0.66921083    -0.82700
O14         O  0.76475507  0.83070822  0.63503233    -0.85300
C15         C  0.76819118  0.87585558  0.63004163     1.02400
O16         O  0.77821185  0.89907363  0.65641589    -0.78100
O17         O  0.81556305  0.86105693  0.66290625    -0.78200
C18         C  0.82979158  0.83638142  0.67567976     1.02300
Cr19       Cr  0.80133749  0.76857862  0.71994341     1.93700
Cr20       Cr  0.76123500  0.80506097  0.69101514     1.93200
Cr21       Cr  0.79523992  0.87688256  0.70308194     1.39100
O22         O  0.78604916  0.81661304  0.70373181    -1.23300
O23         O  0.93637701  0.94979019  0.77717548    -0.85600
O24         O  0.96077170  0.02020490  0.74590350    -0.82600
C25         C  0.97742496  0.00561993  0.75815466     0.97900
O26         O  0.98455237  0.96645870  0.74416194    -0.82700
O27         O  0.98726245  0.87459501  0.70742665    -0.85300
C28         C  0.97912553  0.84373521  0.73094208     1.02400
O29         O  0.96198899  0.85011590  0.74319295    -0.78100
O30         O  0.92520406  0.88068061  0.75298582    -0.78300
C31         C  0.92863545  0.90855460  0.78315632     1.02400
O32         O  0.91208113  0.94907632  0.70493226    -0.85600
O33         O  0.93972852  0.01384445  0.67085636    -0.82600
C34         C  0.95611467  0.03050666  0.65932648     0.97900
O35         O  0.97212319  0.00945976  0.66857891    -0.82700
O36         O  0.97290751  0.91594213  0.63389730    -0.85300
C37         C  0.96911718  0.87098510  0.62871720     1.02400
O38         O  0.95913379  0.84817119  0.65547464    -0.78100
O39         O  0.92268903  0.89050901  0.66510147    -0.78200
C40         C  0.90866422  0.91500140  0.67921868     1.02300
Cr41       Cr  0.93812323  0.97987467  0.72309958     1.93700
Cr42       Cr  0.97744982  0.94127976  0.68971120     1.93200
Cr43       Cr  0.94288468  0.87164795  0.70384390     1.39100
O44         O  0.95278962  0.93120912  0.70475036    -1.23300
O45         O  0.80440526  0.95105382  0.95151206    -0.85600
O46         O  0.78074665  0.02215367  0.98320806    -0.82600
C47         C  0.76432319  0.00806776  0.96902038     0.97900
O48         O  0.75634444  0.96951769  0.98222542    -0.82700
O49         O  0.75131878  0.87847696  0.01809816    -0.85300
C50         C  0.75863730  0.84777126  0.99345273     1.02400
O51         O  0.77581195  0.85393122  0.98099092    -0.78100
O52         O  0.81366516  0.87970642  0.97378642    -0.78300
C53         C  0.81131696  0.90923700  0.94456617     1.02400
O54         O  0.82760605  0.94597002  0.02490254    -0.85600
O55         O  0.80073962  0.01176678  0.05960678    -0.82600
C56         C  0.78451635  0.02941306  0.07107552     0.97900
O57         O  0.76841029  0.01065025  0.05914436    -0.82700
O58         O  0.76596917  0.91694491  0.09227099    -0.85300
C59         C  0.76918912  0.87165473  0.09664624     1.02400
O60         O  0.77846973  0.84837745  0.06906051    -0.78100
O61         O  0.81596651  0.88527254  0.06125172    -0.78200
C62         C  0.83035131  0.91045178  0.04932737     1.02300
Cr63       Cr  0.80244314  0.97949043  0.00629872     1.93700
Cr64       Cr  0.76225300  0.94355319  0.03676656     1.93200
Cr65       Cr  0.79538211  0.87101644  0.02163437     1.39100
O66         O  0.78683063  0.93159536  0.02259178    -1.23300
O67         O  0.93520350  0.79383118  0.95376618    -0.85600
O68         O  0.95907458  0.72202983  0.98585594    -0.82600
C69         C  0.97629184  0.73356590  0.97400780     0.97900
O70         O  0.98387636  0.77310831  0.98646011    -0.82700
O71         O  0.98774481  0.86655833  0.01993843    -0.85300
C72         C  0.98029703  0.89752586  0.99590409     1.02400
O73         O  0.96300276  0.89193142  0.98419148    -0.78100
O74         O  0.92533299  0.86415765  0.97789531    -0.78300
C75         C  0.92815879  0.83585319  0.94786518     1.02400
O76         O  0.91183247  0.79782323  0.02788877    -0.85600
O77         O  0.93877765  0.73198740  0.06216242    -0.82600
C78         C  0.95499662  0.71541485  0.07465332     0.97900
O79         O  0.97104406  0.73538922  0.06362183    -0.82700
O80         O  0.97291211  0.83029396  0.09511694    -0.85300
C81         C  0.96989718  0.87570354  0.09928804     1.02400
O82         O  0.96050894  0.89836516  0.07186688    -0.78100
O83         O  0.92322401  0.85816903  0.06517057    -0.78200
C84         C  0.90891325  0.83319095  0.05265351     1.02300
Cr85       Cr  0.93717702  0.76480881  0.00882547     1.93700
Cr86       Cr  0.97707950  0.80185318  0.04004688     1.93200
Cr87       Cr  0.94364382  0.87368861  0.02513126     1.39100
O88         O  0.95258086  0.81315303  0.02539309    -1.23300
O89         O  0.08067753  0.54666244  0.77681084    -0.85600
O90         O  0.05252407  0.47980322  0.80796312    -0.82600
C91         C  0.03602555  0.46324930  0.81949144     0.97900
O92         O  0.02016923  0.48458358  0.80940431    -0.82700
O93         O  0.01836984  0.57404224  0.84946399    -0.85300
C94         C  0.02275194  0.61767365  0.85871359     1.02400
O95         O  0.03414897  0.64221128  0.83566294    -0.78100
O96         O  0.07075909  0.59976848  0.82185592    -0.78300
C97         C  0.08463455  0.57791219  0.80443242     1.02400
O98         O  0.05681565  0.55417698  0.70564606    -0.85600
O99         O  0.03199243  0.47969228  0.73242483    -0.82600
C100        C  0.01538334  0.49479114  0.72042360     0.97900
O101        O  0.00849580  0.53389359  0.73518019    -0.82700
O102        O  0.00533473  0.62241774  0.77851633    -0.85300
C103        C  0.01392728  0.65708666  0.75992461     1.02400
O104        O  0.03143937  0.65337984  0.74919960    -0.78100
O105        O  0.06757083  0.62136979  0.73508839    -0.78200
C106        C  0.06447506  0.59629538  0.70305353     1.02300
Cr107      Cr  0.05452349  0.51842096  0.75758539     1.93700
Cr108      Cr  0.01499079  0.55427847  0.79179742     1.93200
Cr109      Cr  0.05031606  0.62452104  0.78552952     1.39100
O110        O  0.03991326  0.56568391  0.77891997    -1.23300
O111        O  0.16695491  0.68913000  0.77633793    -0.85600
O112        O  0.19242115  0.75766208  0.81232254    -0.82600
C113        C  0.20818050  0.77655860  0.82518833     0.97900
O114        O  0.22467520  0.75869944  0.81487304    -0.82700
O115        O  0.22725936  0.66400809  0.84710858    -0.85300
C116        C  0.22472158  0.61816721  0.85011633     1.02400
O117        O  0.21654031  0.59500460  0.82113586    -0.78100
O118        O  0.17876497  0.62807486  0.81195866    -0.78300
C119        C  0.16432289  0.65207725  0.79938271     1.02400
O120        O  0.19077383  0.69725025  0.70321430    -0.85600
O121        O  0.21361615  0.76980245  0.73684291    -0.82600
C122        C  0.23089197  0.75882590  0.72503893     0.97900
O123        O  0.23907530  0.72102605  0.73893941    -0.82700
O124        O  0.24407486  0.62873542  0.77358818    -0.85300
C125        C  0.23745095  0.59903361  0.74729399     1.02400
O126        O  0.22067344  0.60520140  0.73325009    -0.78100
O127        O  0.18230947  0.62506512  0.72554095    -0.78200
C128        C  0.18412495  0.65492230  0.69648599     1.02300
Cr129      Cr  0.19195137  0.72532626  0.75874617     1.93700
Cr130      Cr  0.23201034  0.69263524  0.79231151     1.93200
Cr131      Cr  0.20018449  0.61753602  0.77336754     1.39100
O132        O  0.20785774  0.67887426  0.77584443    -1.23300
O133        O  0.07893566  0.69564185  0.45481700    -0.85600
O134        O  0.05059924  0.75880693  0.42020301    -0.82600
C135        C  0.03408096  0.77469543  0.40880876     0.97900
O136        O  0.01838466  0.75352233  0.42030463    -0.82700
O137        O  0.01831674  0.65838113  0.38884091    -0.85300
C138        C  0.02177039  0.61305248  0.38536397     1.02400
O139        O  0.03133311  0.59159228  0.41322555    -0.78100
O140        O  0.06808750  0.63331677  0.41943920    -0.78300
C141        C  0.08224544  0.65906640  0.43138132     1.02400
O142        O  0.05603825  0.70010332  0.52941299    -0.85600
O143        O  0.03050030  0.76758178  0.49725684    -0.82600
C144        C  0.01351939  0.75455653  0.50980161     0.97900
O145        O  0.00627295  0.71460793  0.49738326    -0.82700
O146        O  0.00385786  0.62093353  0.46372754    -0.85300
C147        C  0.01191186  0.59189865  0.48850184     1.02400
O148        O  0.02872931  0.60083305  0.50129823    -0.78100
O149        O  0.06626086  0.62928527  0.50725309    -0.78200
C150        C  0.06385444  0.65918938  0.53638988     1.02300
Cr151      Cr  0.05310790  0.72721413  0.47396419     1.93700
Cr152      Cr  0.01353989  0.68652979  0.44378075     1.93200
Cr153      Cr  0.04791691  0.61796145  0.45991778     1.39100
O154        O  0.03827651  0.67756811  0.45848566    -1.23300
O155        O  0.16564303  0.55237848  0.45099013    -0.85600
O156        O  0.19237492  0.48709106  0.41438324    -0.82600
C157        C  0.20838703  0.46834727  0.40276448     0.97900
O158        O  0.22461728  0.48743579  0.41351933    -0.82700
O159        O  0.22636911  0.58218049  0.38155117    -0.85300
C160        C  0.22352251  0.62769118  0.37794734     1.02400
O161        O  0.21448514  0.65067203  0.40603635    -0.78100
O162        O  0.17689012  0.61370864  0.41490342    -0.78300
C163        C  0.16258308  0.58902112  0.42790810     1.02400
O164        O  0.18943306  0.54627390  0.52331197    -0.85600
O165        O  0.21292291  0.47566754  0.49037811    -0.82600
C166        C  0.22979450  0.48817829  0.50345622     0.97900
O167        O  0.23778046  0.52673431  0.49003191    -0.82700
O168        O  0.24214783  0.61917948  0.45537680    -0.85300
C169        C  0.23515883  0.64911935  0.48114624     1.02400
O170        O  0.21794970  0.64393473  0.49370499    -0.78100
O171        O  0.18012570  0.61806993  0.50208119    -0.78200
C172        C  0.18259492  0.58804968  0.53086852     1.02300
Cr173      Cr  0.19103864  0.51857152  0.46819674     1.93700
Cr174      Cr  0.23096082  0.55440828  0.43630794     1.93200
Cr175      Cr  0.19798517  0.62726564  0.45371215     1.39100
O176        O  0.20655571  0.56654798  0.45195643    -1.23300
O177        O  0.66243710  0.18999725  0.77840402    -0.85600
O178        O  0.68825658  0.25913563  0.81007252    -0.82600
C179        C  0.70412265  0.27794243  0.82212686     0.97900
O180        O  0.72047955  0.25998547  0.81109010    -0.82700
O181        O  0.72367335  0.16660790  0.84487044    -0.85300
C182        C  0.72150882  0.12079960  0.84858300     1.02400
O183        O  0.71256303  0.09693550  0.82110116    -0.78100
O184        O  0.67478541  0.13112685  0.81547715    -0.78300
C185        C  0.66015364  0.15493437  0.80364477     1.02400
O186        O  0.68490452  0.19419753  0.70320437    -0.85600
O187        O  0.70824229  0.26869204  0.73260838    -0.82600
C188        C  0.72526018  0.25658986  0.71993859     0.97900
O189        O  0.73366811  0.21993666  0.73499396    -0.82700
O190        O  0.73912057  0.12999135  0.77046103    -0.85300
C191        C  0.73213443  0.09884222  0.74586898     1.02400
O192        O  0.71485431  0.10327811  0.73371524    -0.78100
O193        O  0.67625469  0.12378496  0.72870860    -0.78200
C194        C  0.67815890  0.15154910  0.69832002     1.02300
Cr195      Cr  0.68697584  0.22502699  0.75753207     1.93700
Cr196      Cr  0.72743419  0.19363790  0.78925643     1.93200
Cr197      Cr  0.69518967  0.11804100  0.77496866     1.39100
O198        O  0.70308666  0.17928442  0.77481349    -1.23300
O199        O  0.57751352  0.05026401  0.78183835    -0.85600
O200        O  0.54956697  0.98630194  0.81560287    -0.82600
C201        C  0.53325561  0.96823870  0.82641008     0.97900
O202        O  0.51728976  0.98905751  0.81602099    -0.82700
O203        O  0.51720425  0.08150274  0.85143051    -0.85300
C204        C  0.52124969  0.12604473  0.85746957     1.02400
O205        O  0.53059260  0.15000186  0.83053346    -0.78100
O206        O  0.56664830  0.10821155  0.82187416    -0.78300
C207        C  0.58073510  0.08422140  0.80765429     1.02400
O208        O  0.55387159  0.05019726  0.70899092    -0.85600
O209        O  0.52914633  0.98029757  0.73992524    -0.82600
C210        C  0.51229773  0.99337075  0.72766196     0.97900
O211        O  0.50500195  0.03310957  0.74061560    -0.82700
O212        O  0.50268828  0.12725802  0.77921711    -0.85300
C213        C  0.51127255  0.15757164  0.75557726     1.02400
O214        O  0.52794437  0.14754703  0.74243453    -0.78100
O215        O  0.56488634  0.11917586  0.73390458    -0.78200
C216        C  0.56172939  0.09149836  0.70356635     1.02300
Cr217      Cr  0.55164635  0.01985003  0.76308393     1.93700
Cr218      Cr  0.51218360  0.05824549  0.79550058     1.93200
Cr219      Cr  0.54686720  0.12733451  0.78242756     1.39100
O220        O  0.53691818  0.06814332  0.78094546    -1.23300
O221        O  0.66202563  0.04797718  0.45233987    -0.85600
O222        O  0.69006480  0.98381199  0.41851711    -0.82600
C223        C  0.70657845  0.96687468  0.40800256     0.97900
O224        O  0.72230951  0.98727967  0.42003199    -0.82700
O225        O  0.72324060  0.08028708  0.38623100    -0.85300
C226        C  0.72007425  0.12543305  0.38139860     1.02400
O227        O  0.71025101  0.14890296  0.40796483    -0.78100
O228        O  0.67338174  0.10810852  0.41505883    -0.78300
C229        C  0.65909749  0.08333960  0.42792635     1.02400
O230        O  0.68462843  0.04593320  0.52627300    -0.85600
O231        O  0.70961065  0.97615801  0.49575168    -0.82600
C232        C  0.72599122  0.99100971  0.50971922     0.97900
O233        O  0.73357430  0.03004669  0.49646759    -0.82700
O234        O  0.73744006  0.12110863  0.46005012    -0.85300
C235        C  0.72976531  0.15197889  0.48415123     1.02400
O236        O  0.71241324  0.14638301  0.49580809    -0.78100
O237        O  0.67490470  0.11624817  0.50237718    -0.78200
C238        C  0.67734286  0.08774165  0.53219125     1.02300
Cr239      Cr  0.68750709  0.01670261  0.47169926     1.93700
Cr240      Cr  0.72738936  0.05507457  0.44182030     1.93200
Cr241      Cr  0.69335959  0.12562893  0.45506027     1.39100
O242        O  0.70269003  0.06562039  0.45561264    -1.23300
O243        O  0.57738849  0.19681637  0.45904641    -0.85600
O244        O  0.55124023  0.26320710  0.42401570    -0.82600
C245        C  0.53539237  0.28087894  0.41095811     0.97900
O246        O  0.51905892  0.26143940  0.42090043    -0.82700
O247        O  0.51823820  0.16810588  0.38744762    -0.85300
C248        C  0.52031803  0.12247120  0.38397168     1.02400
O249        O  0.52905019  0.09904584  0.41193862    -0.78100
O250        O  0.56646549  0.13620696  0.42142508    -0.78300
C251        C  0.58060295  0.16158796  0.43421606     1.02400
O252        O  0.55305388  0.20074973  0.53174930    -0.85600
O253        O  0.52934294  0.27158549  0.49893894    -0.82600
C254        C  0.51209279  0.25827373  0.50948472     0.97900
O255        O  0.50497212  0.21928301  0.49554700    -0.82700
O256        O  0.50139611  0.12873318  0.46014533    -0.85300
C257        C  0.50818478  0.09909150  0.48609035     1.02400
O258        O  0.52509360  0.10579175  0.49961771    -0.78100
O259        O  0.56305571  0.13015669  0.50861880    -0.78200
C260        C  0.56046169  0.15934332  0.53819302     1.02300
Cr261      Cr  0.55186815  0.23000170  0.47699160     1.93700
Cr262      Cr  0.51264404  0.19398723  0.44223655     1.93200
Cr263      Cr  0.54534358  0.12188771  0.46000482     1.39100
O264        O  0.53678275  0.18232503  0.45889716    -1.23300
O265        O  0.66324274  0.69618100  0.27889722    -0.85600
O266        O  0.69030534  0.76269055  0.31107099    -0.82600
C267        C  0.70640806  0.78187058  0.32137174     0.97900
O268        O  0.72262203  0.76229001  0.31089984    -0.82700
O269        O  0.72505448  0.66862219  0.34499108    -0.85300
C270        C  0.72185143  0.62335831  0.34994258     1.02400
O271        O  0.71220147  0.59961607  0.32330171    -0.78100
O272        O  0.67483463  0.63725384  0.31685780    -0.78300
C273        C  0.66048949  0.66183796  0.30458940     1.02400
O274        O  0.68633105  0.69874496  0.20429718    -0.85600
O275        O  0.71019870  0.77127111  0.23407352    -0.82600
C276        C  0.72707650  0.75882646  0.22096909     0.97900
O277        O  0.73487300  0.72028444  0.23431321    -0.82700
O278        O  0.73912126  0.62882812  0.27041973    -0.85300
C279        C  0.73133491  0.59778292  0.24657698     1.02400
O280        O  0.71409259  0.60387063  0.23521071    -0.78100
O281        O  0.67651680  0.62886511  0.22927897    -0.78200
C282        C  0.67927093  0.65658264  0.19893004     1.02300
Cr283      Cr  0.68844709  0.72909411  0.25855338     1.93700
Cr284      Cr  0.72863689  0.69451028  0.28908901     1.93200
Cr285      Cr  0.69504461  0.62160928  0.27649291     1.39100
O286        O  0.70396103  0.68206623  0.27568739    -1.23300
O287        O  0.57861403  0.55166811  0.28000853    -0.85600
O288        O  0.55147402  0.48455190  0.31307912    -0.82600
C289        C  0.53521698  0.46688709  0.32486365     0.97900
O290        O  0.51925070  0.48737404  0.31486766    -0.82700
O291        O  0.51792506  0.58122009  0.34973249    -0.85300
C292        C  0.52118633  0.62665440  0.35394433     1.02400
O293        O  0.53032506  0.64953007  0.32612252    -0.78100
O294        O  0.56743652  0.61203285  0.31757551    -0.78300
C295        C  0.58161044  0.58666015  0.30513555     1.02400
O296        O  0.55511538  0.54949342  0.20607270    -0.85600
O297        O  0.53109864  0.47808193  0.23709321    -0.82600
C298        C  0.51412959  0.49101473  0.22537244     0.97900
O299        O  0.50647413  0.52936876  0.23969136    -0.82700
O300        O  0.50267860  0.62022026  0.27652666    -0.85300
C301        C  0.51001232  0.65085411  0.25191304     1.02400
O302        O  0.52703995  0.64446890  0.23867766    -0.78100
O303        O  0.56496591  0.61947319  0.23060219    -0.78200
C304        C  0.56189108  0.59192789  0.20032162     1.02300
Cr305      Cr  0.55318130  0.51918842  0.26062439     1.93700
Cr306      Cr  0.51340049  0.55493147  0.29400865     1.93200
Cr307      Cr  0.54681595  0.62713500  0.27851620     1.39100
O308        O  0.53793214  0.56668928  0.27870637    -1.23300
O309        O  0.66342362  0.54650896  0.95467928    -0.85600
O310        O  0.69041445  0.48180662  0.91898325    -0.82600
C311        C  0.70649999  0.46356649  0.90738148     0.97900
O312        O  0.72265162  0.48384079  0.91700346    -0.82700
O313        O  0.72371845  0.57715169  0.88243551    -0.85300
C314        C  0.72064325  0.62250284  0.87841521     1.02400
O315        O  0.71123489  0.64535982  0.90605349    -0.78100
O316        O  0.67424576  0.60674241  0.91681042    -0.78300
C317        C  0.66015359  0.58148808  0.92999066     1.02400
O318        O  0.68790919  0.54368656  0.02675352    -0.85600
O319        O  0.71168331  0.47358858  0.99404340    -0.82600
C320        C  0.72855055  0.48753138  0.00610792     0.97900
O321        O  0.73603887  0.52621721  0.99186694    -0.82700
O322        O  0.73959141  0.61764902  0.95464328    -0.85300
C323        C  0.73228376  0.64876969  0.97895180     1.02400
O324        O  0.71556024  0.64120582  0.99344503    -0.78100
O325        O  0.67793290  0.61428265  0.00421780    -0.78200
C326        C  0.68081410  0.58532279  0.03366344     1.02300
Cr327      Cr  0.68926532  0.51463918  0.97200239     1.93700
Cr328      Cr  0.72873647  0.55156031  0.93781946     1.93200
Cr329      Cr  0.69531638  0.62277647  0.95480136     1.39100
O330        O  0.70432437  0.56273007  0.95403779    -1.23300
O331        O  0.57836358  0.69428291  0.95226637    -0.85600
O332        O  0.55153177  0.76106554  0.91868229    -0.82600
C333        C  0.53530404  0.77855905  0.90723727     0.97900
O334        O  0.51923840  0.75882008  0.91864232    -0.82700
O335        O  0.51661396  0.66374222  0.88671792    -0.85300
C336        C  0.51881554  0.61791529  0.88344556     1.02400
O337        O  0.52887093  0.59544958  0.91001185    -0.78100
O338        O  0.56692473  0.63315364  0.91583455    -0.78300
C339        C  0.58127400  0.65840366  0.92800390     1.02400
O340        O  0.55536582  0.69903630  0.02676866    -0.85600
O341        O  0.53182381  0.77095881  0.99565349    -0.82600
C342        C  0.51527389  0.75744359  0.00975618     0.97900
O343        O  0.50715454  0.71931532  0.99611832    -0.82700
O344        O  0.50222040  0.62774894  0.96182799    -0.85300
C345        C  0.50973186  0.59726557  0.98607121     1.02400
O346        O  0.52699353  0.60340904  0.99767556    -0.78100
O347        O  0.56489512  0.62851833  0.00293670    -0.78200
C348        C  0.56204184  0.65672120  0.03295035     1.02300
Cr349      Cr  0.55334970  0.72804089  0.97181838     1.93700
Cr350      Cr  0.51311794  0.69209887  0.94186377     1.93200
Cr351      Cr  0.54632169  0.61943614  0.95610492     1.39100
O352        O  0.53773755  0.68017947  0.95540363    -1.23300
O353        O  0.30662656  0.79812132  0.27555298    -0.69600
O354        O  0.28212234  0.72800017  0.24374141    -0.82600
C355        C  0.26553558  0.74324915  0.25619094     0.97900
O356        O  0.25849321  0.78209341  0.24180906    -0.82700
O357        O  0.25640976  0.87305874  0.20473703    -0.85300
C358        C  0.26441621  0.90402433  0.22832054     1.02400
O359        O  0.28132954  0.89700208  0.24118250    -0.78100
O360        O  0.31805907  0.86675027  0.25086043    -0.78300
C361        C  0.31446601  0.83941384  0.28121692     1.02400
O362        O  0.33102145  0.79756789  0.20310190    -0.85600
O363        O  0.30352450  0.73374281  0.16861352    -0.82600
C364        C  0.28724639  0.71714782  0.15641840     0.97900
O365        O  0.27124749  0.73809501  0.16626948    -0.82700
O366        O  0.27090587  0.83124417  0.13136329    -0.85300
C367        C  0.27447042  0.87638694  0.12663818     1.02400
O368        O  0.28450235  0.89883710  0.15347924    -0.78100
O369        O  0.32075073  0.85555256  0.16281849    -0.78200
C370        C  0.33460443  0.83082427  0.17695860     1.02300
Cr371      Cr  0.30495067  0.76756353  0.22118483     1.93700
Cr372      Cr  0.26600096  0.80634947  0.18727900     1.93200
Cr373      Cr  0.30056807  0.87539438  0.20172012     1.39100
O374        O  0.29054019  0.81615750  0.20267163    -1.23300
O375        O  0.43819350  0.94697327  0.28036408    -0.85600
O376        O  0.46161932  0.01990377  0.24996829    -0.82600
C377        C  0.47836888  0.00684494  0.26288893     0.97900
O378        O  0.48662333  0.96964436  0.24804308    -0.82700
O379        O  0.49176415  0.87941349  0.21144737    -0.85300
C380        C  0.48452072  0.84862161  0.23609512     1.02400
O381        O  0.46739827  0.85438379  0.24886493    -0.78100
O382        O  0.42921363  0.87641759  0.25552966    -0.78300
C383        C  0.43170443  0.90423933  0.28591935     1.02400
O384        O  0.41534236  0.94276715  0.20582654    -0.85600
O385        O  0.44172731  0.01069932  0.17330164    -0.82600
C386        C  0.45770036  0.03036016  0.16252592     0.97900
O387        O  0.47402427  0.01148998  0.17248812    -0.82700
O388        O  0.47661262  0.91788737  0.13780101    -0.85300
C389        C  0.47412562  0.87225420  0.13347804     1.02400
O390        O  0.46502381  0.84844379  0.16094538    -0.78100
O391        O  0.42748105  0.88342618  0.16833693    -0.78200
C392        C  0.41297739  0.90776187  0.18048137     1.02300
Cr393      Cr  0.44015976  0.97705479  0.22583555     1.93700
Cr394      Cr  0.48050013  0.94416280  0.19354389     1.93200
Cr395      Cr  0.44785102  0.86978696  0.20815015     1.39100
O396        O  0.45603829  0.93071811  0.20818500    -1.23300
O397        O  0.30627329  0.95088358  0.45384236    -0.85600
O398        O  0.28156324  0.02056401  0.48452824    -0.82600
C399        C  0.26486840  0.00524586  0.47220807     0.97900
O400        O  0.25764924  0.96664985  0.48711793    -0.82700
O401        O  0.25464269  0.87578896  0.52482982    -0.85300
C402        C  0.26215212  0.84556874  0.49988540     1.02400
O403        O  0.27913469  0.85258574  0.48668464    -0.78100
O404        O  0.31657250  0.88099263  0.47721076    -0.78300
C405        C  0.31368026  0.90946506  0.44739046     1.02400
O406        O  0.33013136  0.94972002  0.52709367    -0.85600
O407        O  0.30257146  0.01526013  0.56089234    -0.82600
C408        C  0.28625072  0.03239398  0.57236341     0.97900
O409        O  0.27034200  0.01116856  0.56218275    -0.82700
O410        O  0.26974663  0.91822746  0.59745312    -0.85300
C411        C  0.27315670  0.87309546  0.60208901     1.02400
O412        O  0.28242495  0.84991328  0.57446586    -0.78100
O413        O  0.31894564  0.89022190  0.56524328    -0.78200
C414        C  0.33316633  0.91498254  0.55226498     1.02300
Cr415      Cr  0.30425796  0.98090902  0.50821542     1.93700
Cr416      Cr  0.26484695  0.94270633  0.54166239     1.93200
Cr417      Cr  0.29869200  0.87260666  0.52616618     1.39100
O418        O  0.28936302  0.93240015  0.52609871    -1.23300
O419        O  0.43806874  0.79658812  0.45893085    -0.85600
O420        O  0.46199401  0.72537834  0.49017691    -0.82600
C421        C  0.47895044  0.73868612  0.47804849     0.97900
O422        O  0.48652222  0.77760405  0.49182498    -0.82700
O423        O  0.49002167  0.86983178  0.52840248    -0.85300
C424        C  0.48246980  0.90037892  0.50413415     1.02400
O425        O  0.46559630  0.89265642  0.49092790    -0.78100
O426        O  0.42793014  0.86630410  0.48330679    -0.78300
C427        C  0.43112703  0.83870906  0.45306888     1.02400
O428        O  0.41431435  0.79893452  0.53266553    -0.85600
O429        O  0.44141307  0.73226344  0.56623305    -0.82600
C430        C  0.45766984  0.71479799  0.57763574     0.97900
O431        O  0.47368215  0.73581751  0.56762929    -0.82700
O432        O  0.47478533  0.82999160  0.60188273    -0.85300
C433        C  0.47115035  0.87512986  0.60650128     1.02400
O434        O  0.46222468  0.89812771  0.57870600    -0.78100
O435        O  0.42542948  0.85893261  0.57057790    -0.78200
C436        C  0.41121828  0.83426972  0.55742029     1.02300
Cr437      Cr  0.43982865  0.76653598  0.51358005     1.93700
Cr438      Cr  0.47949796  0.80367695  0.54621671     1.93200
Cr439      Cr  0.44594149  0.87478259  0.53115110     1.39100
O440        O  0.45498046  0.81458845  0.53128620    -1.23300
O441        O  0.80062393  0.29824003  0.27776674    -0.85600
O442        O  0.77739539  0.22592414  0.24534153    -0.82600
C443        C  0.76069955  0.24078609  0.25731924     0.97900
O444        O  0.75367425  0.27922576  0.24211484    -0.82700
O445        O  0.75149918  0.36922093  0.20215148    -0.85300
C446        C  0.75933431  0.40179661  0.22441997     1.02400
O447        O  0.77655117  0.39663902  0.23638583    -0.78100
O448        O  0.81242606  0.36623828  0.25187155    -0.78300
C449        C  0.80798755  0.34024308  0.28254251     1.02400
O450        O  0.82673415  0.29541026  0.20875262    -0.85600
O451        O  0.79997687  0.23004409  0.17203136    -0.82600
C452        C  0.78393885  0.21327541  0.15849958     0.97900
O453        O  0.76764515  0.23322688  0.16789002    -0.82700
O454        O  0.76704243  0.32463555  0.13096638    -0.85300
C455        C  0.77091325  0.36926406  0.12479456     1.02400
O456        O  0.78136229  0.39256974  0.15034125    -0.78100
O457        O  0.81787875  0.34996108  0.16417158    -0.78200
C458        C  0.83125721  0.32707586  0.18197840     1.02300
Cr459      Cr  0.80033279  0.26546631  0.22413494     1.93700
Cr460      Cr  0.76173379  0.30197425  0.18716988     1.93200
Cr461      Cr  0.79646885  0.37201699  0.20025821     1.39100
O462        O  0.78617051  0.31302621  0.20314118    -1.23300
O463        O  0.93870967  0.44722003  0.28143596    -0.85600
O464        O  0.96235641  0.51905233  0.24837242    -0.82600
C465        C  0.97915545  0.50444169  0.25958561     0.97900
O466        O  0.98613181  0.46557180  0.24470457    -0.82700
O467        O  0.98834221  0.37403301  0.20698961    -0.85300
C468        C  0.98074062  0.34301924  0.23112111     1.02400
O469        O  0.96384493  0.35006384  0.24467033    -0.78100
O470        O  0.92702556  0.37845519  0.25743705    -0.78300
C471        C  0.93069846  0.40617819  0.28751983     1.02400
O472        O  0.91333797  0.44798650  0.21145458    -0.85600
O473        O  0.93989417  0.51275841  0.17500527    -0.82600
C474        C  0.95581700  0.52962676  0.16099410     0.97900
O475        O  0.97210850  0.50923472  0.16966820    -0.82700
O476        O  0.97272158  0.41531583  0.13488792    -0.85300
C477        C  0.96907660  0.37015034  0.13029868     1.02400
O478        O  0.95923762  0.34774688  0.15748984    -0.78100
O479        O  0.92221145  0.38886011  0.17030684    -0.78200
C480        C  0.90882890  0.41404383  0.18647359     1.02300
Cr481      Cr  0.93946978  0.47847480  0.22734975     1.93700
Cr482      Cr  0.97806393  0.44078575  0.19043911     1.93200
Cr483      Cr  0.94375928  0.37058954  0.20692371     1.39100
O484        O  0.95365386  0.43023374  0.20718094    -1.23300
O485        O  0.80499623  0.45236836  0.45516119    -0.85600
O486        O  0.78111348  0.52288113  0.48593236    -0.82600
C487        C  0.76442398  0.51014123  0.47199719     0.97900
O488        O  0.75644660  0.47129100  0.48483116    -0.82700
O489        O  0.75119134  0.37961141  0.52095398    -0.85300
C490        C  0.75853514  0.34838929  0.49671908     1.02400
O491        O  0.77574201  0.35400109  0.48422456    -0.78100
O492        O  0.81383595  0.37999796  0.47668549    -0.78300
C493        C  0.81125195  0.41001181  0.44786930     1.02400
O494        O  0.82775702  0.44652931  0.52897366    -0.85600
O495        O  0.80058117  0.51265494  0.56311439    -0.82600
C496        C  0.78437455  0.53176339  0.57284448     0.97900
O497        O  0.76828960  0.51230713  0.56157165    -0.82700
O498        O  0.76578772  0.41850358  0.59487823    -0.85300
C499        C  0.76828775  0.37296362  0.59904228     1.02400
O500        O  0.77811689  0.34954291  0.57223847    -0.78100
O501        O  0.81594193  0.38548439  0.56460564    -0.78200
C502        C  0.83041360  0.41058088  0.55302750     1.02300
Cr503      Cr  0.80269594  0.48032043  0.50983906     1.93700
Cr504      Cr  0.76223888  0.44492171  0.53938981     1.93200
Cr505      Cr  0.79535435  0.37156588  0.52480777     1.39100
O506        O  0.78688355  0.43245051  0.52552055    -1.23300
O507        O  0.93554833  0.29434035  0.45834337    -0.85600
O508        O  0.96024991  0.22443807  0.48876863    -0.82600
C509        C  0.97697006  0.23873175  0.47590754     0.97900
O510        O  0.98441536  0.27777246  0.48952466    -0.82700
O511        O  0.98744255  0.36960308  0.52581083    -0.85300
C512        C  0.97927996  0.39989318  0.50224648     1.02400
O513        O  0.96247012  0.39148941  0.48930153    -0.78100
O514        O  0.92505017  0.36382072  0.48282698    -0.78300
C515        C  0.92805379  0.33578850  0.45265076     1.02400
O516        O  0.91211226  0.29638119  0.53258013    -0.85600
O517        O  0.93979309  0.23138897  0.56540397    -0.82600
C518        C  0.95620053  0.21471347  0.57617825     0.97900
O519        O  0.97220389  0.23550308  0.56584322    -0.82700
O520        O  0.97346689  0.33033500  0.60006282    -0.85300
C521        C  0.97028231  0.37578660  0.60420977     1.02400
O522        O  0.96017076  0.39776676  0.57742063    -0.78100
O523        O  0.92313970  0.35665547  0.57039458    -0.78200
C524        C  0.90894896  0.33164066  0.55743224     1.02300
Cr525      Cr  0.93781865  0.26487514  0.51285834     1.93700
Cr526      Cr  0.97757842  0.30349428  0.54420488     1.93200
Cr527      Cr  0.94334932  0.37327701  0.53036380     1.39100
O528        O  0.95281106  0.31349652  0.53020390    -1.23300
O529        O  0.07619399  0.04934129  0.27850208    -0.85600
O530        O  0.04989493  0.98096907  0.31249489    -0.82600
C531        C  0.03397224  0.96164587  0.32407033     0.97900
O532        O  0.01765593  0.98196393  0.31569367    -0.82700
O533        O  0.01596569  0.07730345  0.35040841    -0.85300
C534        C  0.01882956  0.12310728  0.35362247     1.02400
O535        O  0.02752838  0.14590861  0.32504795    -0.78100
O536        O  0.06492133  0.11053231  0.31519920    -0.78300
C537        C  0.07914940  0.08537178  0.30273929     1.02400
O538        O  0.05183375  0.04490381  0.20569288    -0.85600
O539        O  0.02860082  0.97303965  0.23694922    -0.82600
C540        C  0.01179304  0.98690916  0.22473281     0.97900
O541        O  0.00383762  0.02406187  0.24052102    -0.82700
O542        O  0.99978365  0.11513218  0.27725452    -0.85300
C543        C  0.00669735  0.14492161  0.25130363     1.02400
O544        O  0.02354034  0.13799287  0.23743339    -0.78100
O545        O  0.06153800  0.11580397  0.22821590    -0.78200
C546        C  0.05849333  0.08698353  0.19870100     1.02300
Cr547      Cr  0.05075023  0.01528329  0.26009527     1.93700
Cr548      Cr  0.01108110  0.04989140  0.29486293     1.93200
Cr549      Cr  0.04377484  0.12328532  0.27690248     1.39100
O550        O  0.03541085  0.06237593  0.27856866    -1.23300
O551        O  0.16185220  0.19591449  0.27963650    -0.85600
O552        O  0.18950795  0.26001523  0.31376100    -0.82600
C553        C  0.20581404  0.27732355  0.32497682     0.97900
O554        O  0.22177046  0.25668144  0.31418402    -0.82700
O555        O  0.22269071  0.16332747  0.34820149    -0.85300
C556        C  0.21959809  0.11810167  0.35315849     1.02400
O557        O  0.20927197  0.09504676  0.32701030    -0.78100
O558        O  0.17220049  0.13676835  0.31871828    -0.78300
C559        C  0.15826334  0.16190611  0.30518957     1.02400
O560        O  0.18590481  0.19689558  0.20680315    -0.85600
O561        O  0.21034807  0.26764493  0.23764396    -0.82600
C562        C  0.22695336  0.25301775  0.22454499     0.97900
O563        O  0.23392918  0.21354105  0.23785342    -0.82700
O564        O  0.23680642  0.12210549  0.27422586    -0.85300
C565        C  0.22867363  0.09125949  0.25070992     1.02400
O566        O  0.21158574  0.09808425  0.23890560    -0.78100
O567        O  0.17479074  0.12758128  0.23072751    -0.78200
C568        C  0.17835969  0.15542837  0.20067937     1.02300
Cr569      Cr  0.18775331  0.22687318  0.26098440     1.93700
Cr570      Cr  0.22705477  0.18856529  0.29250204     1.93200
Cr571      Cr  0.19257670  0.11855763  0.27930491     1.39100
O572        O  0.20238686  0.17823234  0.27847478    -1.23300
O573        O  0.07710115  0.19522000  0.95430556    -0.85600
O574        O  0.05035400  0.26105802  0.91831234    -0.82600
C575        C  0.03426634  0.27878670  0.90631563     0.97900
O576        O  0.01801816  0.26026331  0.91790833    -0.82700
O577        O  0.01660393  0.16671820  0.88350077    -0.85300
C578        C  0.01982941  0.12146861  0.87877851     1.02400
O579        O  0.02897944  0.09809315  0.90616177    -0.78100
O580        O  0.06639328  0.13432685  0.91689133    -0.78300
C581        C  0.08049696  0.15910417  0.93056096     1.02400
O582        O  0.05273292  0.19962556  0.02657265    -0.85600
O583        O  0.02926830  0.27040310  0.99436872    -0.82600
C584        C  0.01243250  0.25707174  0.00736125     0.97900
O585        O  0.00478762  0.21819124  0.99367497    -0.82700
O586        O  0.00061077  0.12676753  0.95576424    -0.85300
C587        C  0.00776152  0.09547411  0.97978719     1.02400
O588        O  0.02455355  0.10243390  0.99375921    -0.78100
O589        O  0.06216616  0.12830531  0.00366236    -0.78200
C590        C  0.05925637  0.15734294  0.03316045     1.02300
Cr591      Cr  0.05146925  0.22843223  0.97173038     1.93700
Cr592      Cr  0.01177250  0.19256275  0.93905240     1.93200
Cr593      Cr  0.04489822  0.12002405  0.95476475     1.39100
O594        O  0.03620557  0.18056338  0.95422083    -1.23300
O595        O  0.16334018  0.04620564  0.95728860    -0.85600
O596        O  0.19009540  0.98134993  0.92062025    -0.82600
C597        C  0.20612905  0.96426913  0.90758575     0.97900
O598        O  0.22234971  0.98472083  0.91680861    -0.82700
O599        O  0.22324224  0.07851445  0.88294873    -0.85300
C600        C  0.21980289  0.12372175  0.87870868     1.02400
O601        O  0.21050663  0.14645345  0.90655280    -0.78100
O602        O  0.17358667  0.10580173  0.91812498    -0.78300
C603        C  0.15964879  0.08092070  0.93254979     1.02400
O604        O  0.18842819  0.04424260  0.02837788    -0.85600
O605        O  0.21218218  0.97352091  0.99498402    -0.82600
C606        C  0.22924487  0.98721475  0.00614002     0.97900
O607        O  0.23640095  0.02635751  0.99195782    -0.82700
O608        O  0.23917084  0.11829353  0.95565684    -0.85300
C609        C  0.23191800  0.14908563  0.98037493     1.02400
O610        O  0.21493142  0.14266856  0.99386861    -0.78100
O611        O  0.17770494  0.11400982  0.00526740    -0.78200
C612        C  0.18090249  0.08555518  0.03490613     1.02300
Cr613      Cr  0.18943410  0.01463044  0.97366974     1.93700
Cr614      Cr  0.22851052  0.05233581  0.93818363     1.93200
Cr615      Cr  0.19481280  0.12294365  0.95554226     1.39100
O616        O  0.20417096  0.06304508  0.95499072    -1.23300
O617        O  0.30354727  0.30150039  0.77843555    -0.85600
O618        O  0.28049777  0.22827165  0.74644886    -0.82600
C619        C  0.26313677  0.23941079  0.75774077     0.97900
O620        O  0.25516856  0.27732099  0.74359447    -0.82700
O621        O  0.25084113  0.36936736  0.70842397    -0.85300
C622        C  0.25776405  0.39909423  0.73449523     1.02400
O623        O  0.27464795  0.39288113  0.74784766    -0.78100
O624        O  0.31284893  0.37226443  0.75470534    -0.78300
C625        C  0.31032779  0.34383959  0.78454320     1.02400
O626        O  0.32737031  0.30707572  0.70461307    -0.85600
O627        O  0.30173110  0.23844411  0.67070014    -0.82600
C628        C  0.28604180  0.21890309  0.65840313     0.97900
O629        O  0.26951082  0.23755593  0.66787409    -0.82700
O630        O  0.26720971  0.33189552  0.63469973    -0.85300
C631        C  0.26986025  0.37756702  0.63087479     1.02400
O632        O  0.27803141  0.40141601  0.65950383    -0.78100
O633        O  0.31555859  0.36701914  0.66773179    -0.78200
C634        C  0.32996866  0.34281811  0.68010231     1.02300
Cr635      Cr  0.30233135  0.27188141  0.72357598     1.93700
Cr636      Cr  0.26240700  0.30456128  0.68986827     1.93200
Cr637      Cr  0.29464627  0.37926661  0.70711864     1.39100
O638        O  0.28661710  0.31813062  0.70583488    -1.23300
O639        O  0.42628575  0.41627439  0.76661763    -0.85600
O640        O  0.45544523  0.48692792  0.77255590    -0.82600
C641        C  0.47284232  0.50267156  0.76805737     0.97900
O642        O  0.48219133  0.49498551  0.73563120    -0.82700
O643        O  0.49136670  0.39600232  0.72977955    -0.85300
C644        C  0.48889309  0.35088565  0.72261980     1.02400
O645        O  0.47521786  0.33685727  0.70032276    -0.78100
O646        O  0.44633692  0.35404175  0.75746976    -0.78300
C647        C  0.43476153  0.37845920  0.77995710     1.02400
O648        O  0.41651400  0.44927076  0.68578895    -0.85600
O649        O  0.44505404  0.52313987  0.69326443    -0.82600
C650        C  0.45660626  0.52836890  0.66324131     0.97900
O651        O  0.46908084  0.49577167  0.65427373    -0.82700
O652        O  0.48120603  0.40067319  0.64438314    -0.85300
C653        C  0.46888271  0.37647982  0.62364758     1.02400
O654        O  0.45174725  0.36801032  0.63758624    -0.78100
O655        O  0.42026858  0.37073800  0.69355633    -0.78200
C656        C  0.40997123  0.40591596  0.68223434     1.02300
Cr657      Cr  0.43726074  0.46578191  0.72747943     1.93700
Cr658      Cr  0.47895718  0.44521644  0.69215606     1.93200
Cr659      Cr  0.44868670  0.36282424  0.69782548     1.39100
O660        O  0.45483679  0.42539817  0.70531093    -1.23300
O661        O  0.30561509  0.44695190  0.95853174    -0.85600
O662        O  0.28203375  0.51896666  0.98930234    -0.82600
C663        C  0.26525359  0.50598965  0.97612216     0.97900
O664        O  0.25734469  0.46746583  0.98978663    -0.82700
O665        O  0.25280347  0.37627160  0.02672305    -0.85300
C666        C  0.26028491  0.34492921  0.00282550     1.02400
O667        O  0.27758003  0.35026812  0.99085181    -0.78100
O668        O  0.31517697  0.37656006  0.98236553    -0.78300
C669        C  0.31238640  0.40471115  0.95240513     1.02400
O670        O  0.32915505  0.44437895  0.03153521    -0.85600
O671        O  0.30225754  0.51024032  0.06564189    -0.82600
C672        C  0.28612755  0.52838898  0.07701422     0.97900
O673        O  0.26990925  0.50934701  0.06600901    -0.82700
O674        O  0.26737827  0.41592170  0.10058918    -0.85300
C675        C  0.27058464  0.37070612  0.10551371     1.02400
O676        O  0.28029883  0.34740878  0.07858568    -0.78100
O677        O  0.31765889  0.38537787  0.06990521    -0.78200
C678        C  0.33199704  0.40972053  0.05668699     1.02300
Cr679      Cr  0.30380972  0.47695234  0.01282952     1.93700
Cr680      Cr  0.26365988  0.44178941  0.04460080     1.93200
Cr681      Cr  0.29707993  0.36916822  0.03077390     1.39100
O682        O  0.28826156  0.42953757  0.03027957    -1.23300
O683        O  0.43889917  0.29105827  0.95985827    -0.85600
O684        O  0.46270700  0.22403043  0.99413038    -0.82600
C685        C  0.47948500  0.23745467  0.98114890     0.97900
O686        O  0.48693944  0.27697398  0.99391946    -0.82700
O687        O  0.49001391  0.36982718  0.02858369    -0.85300
C688        C  0.48287207  0.39967876  0.00338656     1.02400
O689        O  0.46608056  0.39208108  0.98955273    -0.78100
O690        O  0.42870333  0.36338588  0.97914802    -0.78300
C691        C  0.43263157  0.33290802  0.95113727     1.02400
O692        O  0.41435126  0.29727872  0.03181768    -0.85600
O693        O  0.44167396  0.23444509  0.06943552    -0.82600
C694        C  0.45802867  0.21723700  0.08040048     0.97900
O695        O  0.47393661  0.23784944  0.06970509    -0.82700
O696        O  0.47390425  0.33216826  0.10162643    -0.85300
C697        C  0.47063956  0.37753556  0.10491337     1.02400
O698        O  0.46151454  0.39964777  0.07678371    -0.78100
O699        O  0.42469483  0.36008979  0.06723649    -0.78200
C700        C  0.41079464  0.33346846  0.05527911     1.02300
Cr701      Cr  0.44019027  0.26507745  0.01532507     1.93700
Cr702      Cr  0.47943407  0.30464072  0.04718081     1.93200
Cr703      Cr  0.44580422  0.37462784  0.02864412     1.39100
O704        O  0.45502391  0.31460510  0.03111072    -1.23300
C705        C  0.35201322  0.39062515  0.06400497    -0.00400
C706        C  0.35489390  0.33975764  0.05973188    -0.12300
C707        C  0.37378706  0.31951773  0.05879362     0.01800
C708        C  0.39034905  0.35023999  0.06343517    -0.00500
C709        C  0.38729947  0.40070290  0.07083257    -0.12200
C710        C  0.36842551  0.42109166  0.07036954     0.01700
H711        H  0.34234745  0.31590007  0.05460154     0.14700
H712        H  0.39978477  0.42511563  0.07453207     0.14700
C713        C  0.36638329  0.47334694  0.07572244     0.36400
C714        C  0.37567276  0.26748215  0.05174659     0.36300
N715        N  0.36494518  0.51529974  0.07998314    -0.44000
N716        N  0.37712825  0.22579670  0.04590593    -0.44000
C717        C  0.43267266  0.36544620  0.82336451    -0.00400
C718        C  0.44992741  0.35395571  0.84381315    -0.12300
C719        C  0.45004237  0.34524047  0.88537271     0.01800
C720        C  0.43236084  0.34702044  0.90788544    -0.00500
C721        C  0.41483822  0.35930936  0.88793528    -0.12200
C722        C  0.41488512  0.36880209  0.84573765     0.01700
H723        H  0.46375187  0.35406796  0.82729299     0.14700
H724        H  0.40117208  0.36058693  0.90503215     0.14700
C725        C  0.39658542  0.38025493  0.82592234     0.36400
C726        C  0.46884102  0.33722431  0.90431977     0.36300
N727        N  0.38191312  0.38929412  0.80997204    -0.44000
N728        N  0.48420977  0.33184954  0.91845677    -0.44000
C729        C  0.31465573  0.36039343  0.82667804    -0.00400
C730        C  0.31674161  0.32499061  0.85733996    -0.12300
C731        C  0.31729473  0.33828958  0.89855410     0.01800
C732        C  0.31607484  0.38831922  0.90983178    -0.00500
C733        C  0.31555406  0.42380445  0.87891563    -0.12200
C734        C  0.31456046  0.41051001  0.83786775     0.01700
H735        H  0.31696450  0.28642105  0.84925083     0.14700
H736        H  0.31469032  0.46235945  0.88685965     0.14700
C737        C  0.31146931  0.44923225  0.80872553     0.36400
C738        C  0.31758095  0.29936541  0.92822940     0.36300
N739        N  0.30871752  0.48053320  0.78578787    -0.44000
N740        N  0.31769082  0.26793819  0.95180284    -0.44000
C741        C  0.34994261  0.36184227  0.67154599    -0.00400
C742        C  0.36476314  0.32956584  0.65969904    -0.12300
C743        C  0.38434411  0.34531860  0.65764579     0.01800
C744        C  0.38952861  0.39389050  0.66968551    -0.00500
C745        C  0.37445824  0.42722434  0.67806571    -0.12200
C746        C  0.35477874  0.41175887  0.67881889     0.01700
H747        H  0.36109052  0.29166544  0.65298375     0.14700
H748        H  0.37810312  0.46442309  0.68710631     0.14700
C749        C  0.34006790  0.44710140  0.69067736     0.36400
C750        C  0.39885234  0.31002709  0.64444497     0.36300
N751        N  0.32831896  0.47557820  0.70003967    -0.44000
N752        N  0.41039690  0.28159423  0.63389351    -0.44000
C753        C  0.25091444  0.29730321  0.99468024    -0.00400
C754        C  0.25920628  0.26793790  0.96383289    -0.12300
C755        C  0.25456489  0.21836542  0.96037351     0.01800
C756        C  0.24106616  0.19718719  0.98797185    -0.00500
C757        C  0.23275111  0.22662887  0.01878839    -0.12200
C758        C  0.23728452  0.27628455  0.02204408     0.01700
H759        H  0.26984351  0.28353987  0.94277931     0.14700
H760        H  0.22213790  0.21109388  0.03992385     0.14700
C761        C  0.22787491  0.30404642  0.05415236     0.36400
C762        C  0.26366583  0.19100150  0.92767540     0.36300
N763        N  0.22017258  0.32610288  0.07975937    -0.44000
N764        N  0.27111641  0.16943920  0.90147219    -0.44000
C765        C  0.25160760  0.20779384  0.78683557    -0.00400
C766        C  0.23491915  0.22763008  0.80632519    -0.12300
C767        C  0.22362954  0.20028662  0.83422005     0.01800
C768        C  0.22895018  0.15156135  0.84393026    -0.00500
C769        C  0.24505327  0.13092547  0.82294943    -0.12200
C770        C  0.25625503  0.15819136  0.79476251     0.01700
H771        H  0.23067335  0.26510804  0.80006675     0.14700
H772        H  0.24937483  0.09357546  0.82944999     0.14700
C773        C  0.27217108  0.13370290  0.77393925     0.36400
C774        C  0.20645812  0.22324433  0.85173605     0.36300
N775        N  0.28484736  0.11390497  0.75709599    -0.44000
N776        N  0.19263641  0.24171881  0.86543505    -0.44000
C777        C  0.13920840  0.09887747  0.92612984    -0.00400
C778        C  0.13634730  0.14996368  0.92290836    -0.12300
C779        C  0.11747174  0.17055171  0.92319070     0.01800
C780        C  0.10080545  0.13990575  0.92481187    -0.00500
C781        C  0.10361900  0.08866162  0.92593726    -0.12200
C782        C  0.12252192  0.06813730  0.92754034     0.01700
H783        H  0.14896253  0.17438119  0.92247872     0.14700
H784        H  0.09096075  0.06449024  0.92796131     0.14700
C785        C  0.12434000  0.01568578  0.93167628     0.36400
C786        C  0.11561976  0.22322872  0.92287003     0.36300
N787        N  0.12578567  0.97367611  0.93530772    -0.44000
N788        N  0.11407216  0.26545134  0.92294475    -0.44000
C789        C  0.26109439  0.34264258  0.13986415    -0.00400
C790        C  0.26316535  0.29127924  0.14052791    -0.12300
C791        C  0.25251182  0.26181727  0.16785418     0.01800
C792        C  0.23877033  0.28314091  0.19509610    -0.00500
C793        C  0.23709488  0.33453243  0.19552167    -0.12200
C794        C  0.24837255  0.36425950  0.16915743     0.01700
H795        H  0.27293698  0.27352602  0.11893773     0.14700
H796        H  0.22726235  0.35174955  0.21730966     0.14700
C797        C  0.24695089  0.41672390  0.17399577     0.36400
C798        C  0.25582700  0.20956111  0.16645538     0.36300
N799        N  0.24597914  0.45873356  0.17852909    -0.44000
N800        N  0.25868277  0.16777822  0.16554419    -0.44000
C801        C  0.17668905  0.10200473  0.07723192    -0.00400
C802        C  0.17571594  0.15257995  0.08493707    -0.12300
C803        C  0.17517419  0.17096629  0.12470750     0.01800
C804        C  0.17505309  0.13834350  0.15819808    -0.00500
C805        C  0.17446642  0.08769003  0.15039901    -0.12200
C806        C  0.17555690  0.06929768  0.11056453     0.01700
H807        H  0.17654170  0.17823952  0.05982733     0.14700
H808        H  0.17434669  0.06213971  0.17558073     0.14700
C809        C  0.17616085  0.01674660  0.10521719     0.36400
C810        C  0.17564374  0.22358367  0.12980320     0.36300
N811        N  0.17678045  0.97463590  0.10107143    -0.44000
N812        N  0.17623173  0.26574506  0.13365607    -0.44000
C813        C  0.06228269  0.14009631  0.07538886    -0.00400
C814        C  0.06063175  0.08961844  0.08275637    -0.12300
C815        C  0.05993674  0.07118214  0.12233437     0.01800
C816        C  0.06170256  0.10347512  0.15604629    -0.00500
C817        C  0.06451292  0.15378932  0.14854693    -0.12200
C818        C  0.06449127  0.17237343  0.10883518     0.01700
H819        H  0.05862921  0.06442892  0.05747043     0.14700
H820        H  0.06573287  0.17923415  0.17384870     0.14700
C821        C  0.06612149  0.22479188  0.10359616     0.36400
C822        C  0.05627229  0.01926588  0.12684158     0.36300
N823        N  0.06724712  0.26681502  0.09939679    -0.44000
N824        N  0.05307094  0.97778584  0.13027005    -0.44000
C825        C  0.09926254  0.10439607  0.31081596    -0.00400
C826        C  0.10235630  0.15542973  0.30809293    -0.12300
C827        C  0.12132254  0.17573718  0.30869844     0.01800
C828        C  0.13775469  0.14492093  0.31305121    -0.00500
C829        C  0.13448721  0.09430939  0.31919528    -0.12200
C830        C  0.11552599  0.07392303  0.31756212     0.01700
H831        H  0.08994555  0.17950117  0.30319185     0.14700
H832        H  0.14688862  0.06990376  0.32283585     0.14700
C833        C  0.11317842  0.02174858  0.32267178     0.36400
C834        C  0.12346668  0.22806750  0.30382004     0.36300
N835        N  0.11138445  0.97990296  0.32698800    -0.44000
N836        N  0.12510913  0.27001604  0.29982648    -0.44000
C837        C  0.98819437  0.20937331  0.44534074    -0.00400
C838        C  0.99429827  0.16146239  0.45456519    -0.12300
C839        C  0.00484209  0.13287575  0.42608162     0.01800
C840        C  0.00972473  0.15241591  0.38748515    -0.00500
C841        C  0.00451275  0.20141948  0.37943007    -0.12200
C842        C  0.99386407  0.22961956  0.40764190     0.01700
H843        H  0.99124181  0.14667611  0.48446946     0.14700
H844        H  0.00816799  0.21754189  0.35021990     0.14700
C845        C  0.98841865  0.27893178  0.39662927     0.36400
C846        C  0.01116299  0.08456760  0.43790978     0.36300
N847        N  0.98408057  0.31843691  0.38775333    -0.44000
N848        N  0.01635683  0.04600728  0.44760961    -0.44000
C849        C  0.85053449  0.39226611  0.56219687    -0.00400
C850        C  0.85322328  0.34121990  0.56659759    -0.12300
C851        C  0.87207033  0.32041047  0.56730686     0.01800
C852        C  0.88876495  0.35079382  0.56446386    -0.00500
C853        C  0.88609025  0.40203667  0.56333636    -0.12200
C854        C  0.86728012  0.42281067  0.56179326     0.01700
H855        H  0.84055275  0.31700057  0.56727380     0.14700
H856        H  0.89879222  0.42607187  0.56129071     0.14700
C857        C  0.86562280  0.47543901  0.55912553     0.36400
C858        C  0.87389885  0.26791833  0.57083729     0.36300
N859        N  0.86429262  0.51762739  0.55701910    -0.44000
N860        N  0.87537042  0.22585308  0.57391725    -0.44000
C861        C  0.92621407  0.38968770  0.32981929    -0.00400
C862        C  0.92325550  0.33939395  0.33721506    -0.12300
C863        C  0.92238781  0.32101068  0.37703394     0.01800
C864        C  0.92430850  0.35328310  0.41058828    -0.00500
C865        C  0.92536500  0.40385549  0.40318602    -0.12200
C866        C  0.92648324  0.42222459  0.36351737     0.01700
H867        H  0.92259458  0.31387185  0.31188051     0.14700
H868        H  0.92658421  0.42920343  0.42853210     0.14700
C869        C  0.92864371  0.47457578  0.35878114     0.36400
C870        C  0.91987683  0.26882880  0.38244018     0.36300
N871        N  0.93050307  0.51651330  0.35512156    -0.44000
N872        N  0.91784569  0.22703157  0.38679829    -0.44000
C873        C  0.98922573  0.29411173  0.23811791    -0.00400
C874        C  0.98005231  0.26423489  0.26764284    -0.12300
C875        C  0.98382976  0.21415504  0.26991095     0.01800
C876        C  0.99778523  0.19311073  0.24335925    -0.00500
C877        C  0.00683095  0.22285296  0.21361984    -0.12200
C878        C  0.00281679  0.27277235  0.21089258     0.01700
H879        H  0.96926511  0.27973027  0.28838862     0.14700
H880        H  0.01760714  0.20731217  0.19287246     0.14700
C881        C  0.01265534  0.30037224  0.17930194     0.36400
C882        C  0.97310300  0.18581713  0.29979182     0.36300
N883        N  0.02067010  0.32208306  0.15393335    -0.44000
N884        N  0.96435986  0.16334960  0.32364454    -0.44000
C885        C  0.97852733  0.34196041  0.09594242    -0.00400
C886        C  0.99361362  0.36440973  0.07295357    -0.12300
C887        C  0.00489548  0.33789909  0.04441698     0.01800
C888        C  0.00116164  0.28742520  0.03766412    -0.00500
C889        C  0.98579289  0.26526437  0.05984938    -0.12200
C890        C  0.97464945  0.29152934  0.08864554     0.01700
H891        H  0.99707951  0.40276644  0.07804712     0.14700
H892        H  0.98258382  0.22667372  0.05517525     0.14700
C893        C  0.95948304  0.26509313  0.11037631     0.36400
C894        C  0.02006636  0.36382158  0.02229403     0.36300
N895        N  0.94738122  0.24372856  0.12780052    -0.44000
N896        N  0.03224728  0.38448528  0.00452558    -0.44000
C897        C  0.80989886  0.36043000  0.32400500    -0.00400
C898        C  0.82767034  0.35671152  0.34554338    -0.12300
C899        C  0.82884930  0.37252916  0.38640457     0.01800
C900        C  0.81228761  0.39411390  0.40507527    -0.00500
C901        C  0.79498482  0.39946006  0.38283134    -0.12200
C902        C  0.79340249  0.38123772  0.34343208     0.01700
H903        H  0.84036217  0.34028547  0.33090539     0.14700
H904        H  0.78207045  0.41498473  0.39746702     0.14700
C905        C  0.77398101  0.37951056  0.32607232     0.36400
C906        C  0.84706690  0.36712658  0.40822129     0.36300
N907        N  0.75797180  0.37728754  0.31450083    -0.44000
N908        N  0.86168723  0.36287384  0.42570616    -0.44000
C909        C  0.85140616  0.34743034  0.18082905    -0.00400
C910        C  0.85800744  0.37014122  0.21654121    -0.12300
C911        C  0.87574899  0.39579515  0.21771629     0.01800
C912        C  0.88812063  0.39694794  0.18297284    -0.00500
C913        C  0.88155434  0.37396198  0.14695181    -0.12200
C914        C  0.86304025  0.35063470  0.14533441     0.01700
H915        H  0.84903639  0.36878651  0.24382105     0.14700
H916        H  0.89091384  0.37408032  0.12015668     0.14700
C917        C  0.85651303  0.32940157  0.10745235     0.36400
C918        C  0.88093382  0.41903192  0.25579813     0.36300
N919        N  0.85131306  0.31261548  0.07693361    -0.44000
N920        N  0.88475891  0.43782203  0.28640285    -0.44000
C921        C  0.45792146  0.66743367  0.60019652    -0.00400
C922        C  0.44039860  0.65052825  0.61825078    -0.12300
C923        C  0.43942462  0.60506941  0.63789005     0.01800
C924        C  0.45628091  0.57497938  0.63984831    -0.00500
C925        C  0.47370747  0.59134108  0.62117451    -0.12200
C926        C  0.47473351  0.63690403  0.60166895     0.01700
H927        H  0.42727262  0.67287384  0.61695549     0.14700
H928        H  0.48678638  0.56880649  0.62245090     0.14700
C929        C  0.49320427  0.65037658  0.58286051     0.36400
C930        C  0.42072782  0.58991399  0.65472691     0.36300
N931        N  0.50805682  0.66090567  0.56789596    -0.44000
N932        N  0.40571826  0.57788676  0.66814952    -0.44000
C933        C  0.28577792  0.07961350  0.59512105    -0.00400
C934        C  0.30290895  0.09591574  0.61477172    -0.12300
C935        C  0.30360203  0.14134449  0.63470548     0.01800
C936        C  0.28677871  0.17193785  0.63529784    -0.00500
C937        C  0.26972296  0.15570241  0.61543395    -0.12200
C938        C  0.26907647  0.11042341  0.59537508     0.01700
H939        H  0.31589200  0.07295797  0.61471091     0.14700
H940        H  0.25674265  0.17865013  0.61533077     0.14700
C941        C  0.25122204  0.09777633  0.57412734     0.36400
C942        C  0.32170091  0.15456110  0.65492583     0.36300
N943        N  0.23692461  0.08774864  0.55701768    -0.44000
N944        N  0.33621670  0.16506987  0.67105583    -0.44000
C945        C  0.23001435  0.09061232  0.38653762    -0.00400
C946        C  0.22799479  0.03924800  0.38862246    -0.12300
C947        C  0.23915223  0.01098357  0.41580133     0.01800
C948        C  0.25309718  0.03366910  0.44182811    -0.00500
C949        C  0.25506219  0.08487510  0.44011039    -0.12200
C950        C  0.24365494  0.11330059  0.41345719     0.01700
H951        H  0.21788532  0.02064687  0.36829081     0.14700
H952        H  0.26535473  0.10306524  0.46032144     0.14700
C953        C  0.24640847  0.16576308  0.41483462     0.36400
C954        C  0.23633427  0.95844646  0.41525866     0.36300
N955        N  0.24861168  0.20782126  0.41617527    -0.44000
N956        N  0.23402949  0.91638563  0.41493594    -0.44000
C957        C  0.35319915  0.89615883  0.56080788    -0.00400
C958        C  0.35562512  0.84481172  0.56258724    -0.12300
C959        C  0.37430238  0.82348039  0.56379354     0.01800
C960        C  0.39110609  0.85360333  0.56435379    -0.00500
C961        C  0.38863603  0.90498438  0.56593998    -0.12200
C962        C  0.36994055  0.92634020  0.56363293     0.01700
H963        H  0.34288506  0.82089990  0.56074311     0.14700
H964        H  0.40142736  0.92882064  0.56651844     0.14700
C965        C  0.36836212  0.97906778  0.56389485     0.36400
C966        C  0.37582153  0.77070634  0.56361241     0.36300
N967        N  0.36713586  0.02136071  0.56423006    -0.44000
N968        N  0.37705860  0.72841288  0.56343946    -0.44000
C969        C  0.45743104  0.07789209  0.14106347    -0.00400
C970        C  0.47351263  0.09092753  0.11648744    -0.12300
C971        C  0.47430175  0.13650074  0.09719084     0.01800
C972        C  0.45868538  0.17022176  0.10247483    -0.00500
C973        C  0.44271354  0.15730663  0.12725918    -0.12200
C974        C  0.44202296  0.11199949  0.14683309     0.01700
H975        H  0.48547065  0.06523583  0.11205664     0.14700
H976        H  0.43077099  0.18302480  0.13175731     0.14700
C977        C  0.42576243  0.10287753  0.17421839     0.36400
C978        C  0.49098379  0.14653577  0.07105314     0.36300
N979        N  0.41279014  0.09579211  0.19635249    -0.44000
N980        N  0.50437569  0.15444697  0.05019900    -0.44000
C981        C  0.42788838  0.88647718  0.32807206    -0.00400
C982        C  0.42662198  0.92100385  0.35983559    -0.12300
C983        C  0.42655921  0.90651992  0.40073149     0.01800
C984        C  0.42758992  0.85610011  0.41076521    -0.00500
C985        C  0.42757775  0.82151640  0.37895180    -0.12200
C986        C  0.42784026  0.83601880  0.33808744     0.01700
H987        H  0.42657246  0.95981476  0.35279441     0.14700
H988        H  0.42829076  0.78275013  0.38596279     0.14700
C989        C  0.42961064  0.79806424  0.30753886     0.36400
C990        C  0.42688883  0.94468645  0.43132690     0.36300
N991        N  0.43115006  0.76757547  0.28316461    -0.44000
N992        N  0.42725615  0.97542119  0.45568951    -0.44000
C993        C  0.28615959  0.57534085  0.09934512    -0.00400
C994        C  0.27104407  0.60890861  0.09153127    -0.12300
C995        C  0.27134047  0.65592700  0.10856333     0.01800
C996        C  0.28688995  0.66982389  0.13448883    -0.00500
C997        C  0.30199124  0.63616949  0.14228031    -0.12200
C998        C  0.30177759  0.58936030  0.12503784     0.01700
H999        H  0.25926589  0.59900354  0.07088758     0.14700
H1000       H  0.31386644  0.64602269  0.16269827     0.14700
C1001       C  0.31750198  0.55620750  0.13519744     0.36400
C1002       C  0.25600019  0.68968623  0.09742331     0.36300
N1003       N  0.33010686  0.52974801  0.14346613    -0.44000
N1004       N  0.24375993  0.71678528  0.08828523    -0.44000
C1005       C  0.23765984  0.04370063  0.24238202    -0.00400
C1006       C  0.25808413  0.04019796  0.24330236    -0.12300
C1007       C  0.26716418  0.99489173  0.23943619     0.01800
C1008       C  0.25551903  0.95184441  0.23541435    -0.00500
C1009       C  0.23513015  0.95536491  0.23409597    -0.12200
C1010       C  0.22604883  0.00065222  0.23753337     0.01700
H1011       H  0.26697993  0.07303105  0.24681289     0.14700
H1012       H  0.22624505  0.92250812  0.23054593     0.14700
C1013       C  0.20480095  0.00072133  0.23765862     0.36400
C1014       C  0.28840544  0.99457444  0.23768167     0.36300
N1015       N  0.18779543  0.99996373  0.23772399    -0.44000
N1016       N  0.30540027  0.99473767  0.23606286    -0.44000
C1017       C  0.26473399  0.90429731  0.09263213    -0.00400
C1018       C  0.25057553  0.88034649  0.06828003    -0.12300
C1019       C  0.23886608  0.90611277  0.04027913     0.01800
C1020       C  0.24127345  0.95732324  0.03525664    -0.00500
C1021       C  0.25592490  0.98093740  0.05833212    -0.12200
C1022       C  0.26736234  0.95550131  0.08688230     0.01700
H1023       H  0.24812656  0.84132071  0.07193610     0.14700
H1024       H  0.25813411  0.02010108  0.05493426     0.14700
C1025       C  0.28119762  0.98381577  0.11058136     0.36400
C1026       C  0.22458596  0.87872876  0.01700417     0.36300
N1027       N  0.29215110  0.00676562  0.12969094    -0.44000
N1028       N  0.21311097  0.85671477  0.99846546    -0.44000
C1029       C  0.31829715  0.85703409  0.32344334    -0.00400
C1030       C  0.31756460  0.90759859  0.33128819    -0.12300
C1031       C  0.31727210  0.92591552  0.37121072     0.01800
C1032       C  0.31786394  0.89326681  0.40473466    -0.00500
C1033       C  0.32030288  0.84299567  0.39673229    -0.12200
C1034       C  0.32041144  0.82470748  0.35674940     0.01700
H1035       H  0.31614013  0.93298873  0.30615505     0.14700
H1036       H  0.32107148  0.81735141  0.42182418     0.14700
C1037       C  0.32231082  0.77244267  0.35103964     0.36400
C1038       C  0.31581420  0.97838121  0.37642331     0.36300
N1039       N  0.32382363  0.73053004  0.34659401    -0.44000
N1040       N  0.31461099  0.02042822  0.38042652    -0.44000
C1041       C  0.35490418  0.84820837  0.16934376    -0.00400
C1042       C  0.35791208  0.89917421  0.16552947    -0.12300
C1043       C  0.37677781  0.91961253  0.16687464     0.01800
C1044       C  0.39313132  0.88881736  0.17114119    -0.00500
C1045       C  0.39024725  0.83760443  0.17164294    -0.12200
C1046       C  0.37133637  0.81718749  0.17123108     0.01700
H1047       H  0.34540791  0.92361812  0.16396319     0.14700
H1048       H  0.40275761  0.81342136  0.17482497     0.14700
C1049       C  0.36919265  0.76458334  0.17340649     0.36400
C1050       C  0.37892430  0.97217084  0.16434760     0.36300
N1051       N  0.36747576  0.72241384  0.17503077    -0.44000
N1052       N  0.38058572  0.01430473  0.16214968    -0.44000
C1053       C  0.50485313  0.78691123  0.04133871    -0.00400
C1054       C  0.50593097  0.83832170  0.04044576    -0.12300
C1055       C  0.49551569  0.86721924  0.06876271     0.01800
C1056       C  0.48368683  0.84464393  0.09915819    -0.00500
C1057       C  0.48267537  0.79303386  0.09965930    -0.12200
C1058       C  0.49313149  0.76435984  0.07160368     0.01700
H1059       H  0.51477749  0.85607641  0.01718943     0.14700
H1060       H  0.47415084  0.77452870  0.12300614     0.14700
C1061       C  0.49236118  0.71168054  0.07602993     0.36400
C1062       C  0.49747011  0.91978718  0.06577339     0.36300
N1063       N  0.49185215  0.66950419  0.07961264    -0.44000
N1064       N  0.49909057  0.96191727  0.06327937    -0.44000
C1065       C  0.49164448  0.44834562  0.99664968    -0.00400
C1066       C  0.48228785  0.47929060  0.96863855    -0.12300
C1067       C  0.48639787  0.52922803  0.96733209     0.01800
C1068       C  0.50069940  0.54911624  0.99367200    -0.00500
C1069       C  0.51004651  0.51820918  0.02175112    -0.12200
C1070       C  0.50591223  0.46823975  0.02310455     0.01700
H1071       H  0.47117921  0.46471206  0.94827658     0.14700
H1072       H  0.52124470  0.53280815  0.04189352     0.14700
C1073       C  0.51658911  0.43888794  0.05204973     0.36400
C1074       C  0.47585862  0.55842494  0.93808220     0.36300
N1075       N  0.52526033  0.41551742  0.07512238    -0.44000
N1076       N  0.46734803  0.58160339  0.91462412    -0.44000
C1077       C  0.48294195  0.53170417  0.80006477    -0.00400
C1078       C  0.48435116  0.58266825  0.79536052    -0.12300
C1079       C  0.49628255  0.61138343  0.82100959     0.01800
C1080       C  0.50753884  0.58904479  0.85209701    -0.00500
C1081       C  0.50623593  0.53759851  0.85616801    -0.12200
C1082       C  0.49414764  0.50913424  0.83065182     0.01700
H1083       H  0.47629458  0.60009680  0.77097453     0.14700
H1084       H  0.51443329  0.51933258  0.87988656     0.14700
C1085       C  0.49391493  0.45662344  0.83576904     0.36400
C1086       C  0.49667255  0.66360599  0.81421645     0.36300
N1087       N  0.49395372  0.41454910  0.83998832    -0.44000
N1088       N  0.49689774  0.70549246  0.80878341    -0.44000
C1089       C  0.63992648  0.59957025  0.92231926    -0.00400
C1090       C  0.63704585  0.65069056  0.92272838    -0.12300
C1091       C  0.61818887  0.67103971  0.92233566     0.01800
C1092       C  0.60156110  0.64016761  0.92025784    -0.00500
C1093       C  0.60450188  0.58906812  0.91691799    -0.12200
C1094       C  0.62341923  0.56864658  0.91851944     0.01700
H1095       H  0.64959250  0.67507184  0.92573926     0.14700
H1096       H  0.59192173  0.56460917  0.91548070     0.14700
C1097       C  0.62546222  0.51606357  0.91644328     0.36400
C1098       C  0.61640334  0.72362638  0.92548782     0.36300
N1099       N  0.62702757  0.47388923  0.91462167    -0.44000
N1100       N  0.61508262  0.76577295  0.92831516    -0.44000
C1101       C  0.73997089  0.45719567  0.03551849    -0.00400
C1102       C  0.73557968  0.40704994  0.03950188    -0.12300
C1103       C  0.74582852  0.37707512  0.06686940     0.01800
C1104       C  0.76134842  0.39681838  0.09071298    -0.00500
C1105       C  0.76591290  0.44689780  0.08600499    -0.12200
C1106       C  0.75531958  0.47704449  0.05950751     0.01700
H1107       H  0.72384033  0.39113081  0.02148076     0.14700
H1108       H  0.77733729  0.46343599  0.10448991     0.14700
C1109       C  0.75973750  0.52889142  0.05984298     0.36400
C1110       C  0.73921648  0.32698800  0.07104070     0.36300
N1111       N  0.76314526  0.57048560  0.06042524    -0.44000
N1112       N  0.73367781  0.28704230  0.07446916    -0.44000
C1113       C  0.50121885  0.69925273  0.24549350    -0.00400
C1114       C  0.50958652  0.72887103  0.21500118    -0.12300
C1115       C  0.50618799  0.77908869  0.21387621     0.01800
C1116       C  0.49344025  0.80044469  0.24282807    -0.00500
C1117       C  0.48501619  0.77080079  0.27326710    -0.12200
C1118       C  0.48852132  0.72063723  0.27456916     0.01700
H1119       H  0.51944662  0.71293952  0.19259755     0.14700
H1120       H  0.47503215  0.78666293  0.29549289     0.14700
C1121       C  0.47900115  0.69276242  0.30643220     0.36400
C1122       C  0.51590880  0.80713994  0.18240149     0.36300
N1123       N  0.47120716  0.67074721  0.33191465    -0.44000
N1124       N  0.52387748  0.82939041  0.15729476    -0.44000
C1125       C  0.49030988  0.70845900  0.44814448    -0.00400
C1126       C  0.50420626  0.73193855  0.42312193    -0.12300
C1127       C  0.51503513  0.70606159  0.39373185     0.01800
C1128       C  0.51228479  0.65471434  0.38878292    -0.00500
C1129       C  0.49892814  0.63090750  0.41507406    -0.12200
C1130       C  0.48800096  0.65707031  0.44434954     0.01700
H1131       H  0.50633448  0.77123478  0.42583340     0.14700
H1132       H  0.49656018  0.59174465  0.41213168     0.14700
C1133       C  0.47483304  0.62989736  0.47053682     0.36400
C1134       C  0.52846228  0.73407002  0.36866748     0.36300
N1135       N  0.46432438  0.60800426  0.49154943    -0.44000
N1136       N  0.53911919  0.75673639  0.34854983    -0.44000
C1137       C  0.47995945  0.40585428  0.13879665    -0.00400
C1138       C  0.49528276  0.38379699  0.16074711    -0.12300
C1139       C  0.50657618  0.41040749  0.18884341     0.01800
C1140       C  0.50270522  0.46064460  0.19579917    -0.00500
C1141       C  0.48697670  0.48233466  0.17487811    -0.12200
C1142       C  0.47567126  0.45572302  0.14676763     0.01700
H1143       H  0.49890058  0.34568107  0.15523059     0.14700
H1144       H  0.48355828  0.52062711  0.18014025     0.14700
C1145       C  0.45973178  0.48082337  0.12691448     0.36400
C1146       C  0.52176820  0.38462355  0.21049969     0.36300
N1147       N  0.44694889  0.50105984  0.11115198    -0.44000
N1148       N  0.53389911  0.36386457  0.22790485    -0.44000
C1149       C  0.56558640  0.63979781  0.07538253    -0.00400
C1150       C  0.56496055  0.67449032  0.10710898    -0.12300
C1151       C  0.56484068  0.66013488  0.14800238     0.01800
C1152       C  0.56540797  0.60973788  0.15812405    -0.00500
C1153       C  0.56716914  0.57520679  0.12650910    -0.12200
C1154       C  0.56729772  0.58954892  0.08558898     0.01700
H1155       H  0.56373653  0.71314965  0.10002029     0.14700
H1156       H  0.56774069  0.53647211  0.13370992     0.14700
C1157       C  0.56802586  0.55130957  0.05509961     0.36400
C1158       C  0.56275829  0.69806843  0.17849634     0.36300
N1159       N  0.56857619  0.52055668  0.03077053    -0.44000
N1160       N  0.56105126  0.72858305  0.20280334    -0.44000
C1161       C  0.67678125  0.60133558  0.07627097    -0.00400
C1162       C  0.67358485  0.65142460  0.08387928    -0.12300
C1163       C  0.67307627  0.67004101  0.12363020     0.01800
C1164       C  0.67564118  0.63822679  0.15705385    -0.00500
C1165       C  0.67728517  0.58770138  0.14965572    -0.12200
C1166       C  0.67796801  0.56904042  0.10993129     0.01700
H1167       H  0.67236216  0.67675279  0.05865459     0.14700
H1168       H  0.67917056  0.56275286  0.17497595     0.14700
C1169       C  0.68054072  0.51678484  0.10514438     0.36400
C1170       C  0.67022667  0.72209705  0.12897937     0.36300
N1171       N  0.68264619  0.47491486  0.10155194    -0.44000
N1172       N  0.66793962  0.76382774  0.13312742    -0.44000
C1173       C  0.64037159  0.64386832  0.31411045    -0.00400
C1174       C  0.63720633  0.59275827  0.31559506    -0.12300
C1175       C  0.61816568  0.57285127  0.31533971     0.01800
C1176       C  0.60182158  0.60425374  0.31414548    -0.00500
C1177       C  0.60501011  0.65531238  0.31660305    -0.12200
C1178       C  0.62403360  0.67520029  0.31633961     0.01700
H1179       H  0.64964507  0.56805052  0.31450977     0.14700
H1180       H  0.59259240  0.68010392  0.31635502     0.14700
C1181       C  0.62638226  0.72775521  0.31816078     0.36400
C1182       C  0.61579238  0.52025954  0.31602964     0.36300
N1183       N  0.62820865  0.76988643  0.31998130    -0.44000
N1184       N  0.61387176  0.47810891  0.31687487    -0.44000
C1185       C  0.75355418  0.54120387  0.44183741    -0.00400
C1186       C  0.73512770  0.52471051  0.42767538    -0.12300
C1187       C  0.72422081  0.55148239  0.39922867     0.01800
C1188       C  0.73146107  0.59660029  0.38420553    -0.00500
C1189       C  0.74958790  0.61391551  0.39908809    -0.12200
C1190       C  0.76068590  0.58676672  0.42711981     0.01700
H1191       H  0.72914762  0.49025104  0.43855552     0.14700
H1192       H  0.75557887  0.64803131  0.38748282     0.14700
C1193       C  0.77951929  0.60640495  0.43918550     0.36400
C1194       C  0.70552423  0.53170499  0.38638566     0.36300
N1195       N  0.79464517  0.62221640  0.44859799    -0.44000
N1196       N  0.69055848  0.51564946  0.37620459    -0.44000
C1197       C  0.75025269  0.44971364  0.23255602    -0.00400
C1198       C  0.76035628  0.48175136  0.25904361    -0.12300
C1199       C  0.75562319  0.53109333  0.26185542     0.01800
C1200       C  0.74011960  0.54955832  0.23826905    -0.00500
C1201       C  0.72988463  0.51746771  0.21192839    -0.12200
C1202       C  0.73457742  0.46787652  0.20935155     0.01700
H1203       H  0.77254921  0.46863052  0.27708582     0.14700
H1204       H  0.71767540  0.53077019  0.19399919     0.14700
C1205       C  0.72307165  0.43700823  0.18264906     0.36400
C1206       C  0.76686992  0.56109484  0.28970542     0.36300
N1207       N  0.71374516  0.41224734  0.16149398    -0.44000
N1208       N  0.77601421  0.58475679  0.31202687    -0.44000
C1209       C  0.53563621  0.32704905  0.38691247    -0.00400
C1210       C  0.51782974  0.35196851  0.38114173    -0.12300
C1211       C  0.51722510  0.39752780  0.36175776     0.01800
C1212       C  0.53484850  0.41972562  0.34762799    -0.00500
C1213       C  0.55261524  0.39445005  0.35293818    -0.12200
C1214       C  0.55318185  0.34870970  0.37200686     0.01700
H1215       H  0.50419804  0.33618415  0.39236589     0.14700
H1216       H  0.56625473  0.41012129  0.34165242     0.14700
C1217       C  0.57204622  0.32498691  0.37503218     0.36400
C1218       C  0.49819049  0.42003993  0.35706715     0.36300
N1219       N  0.58721173  0.30617741  0.37722288    -0.44000
N1220       N  0.48287821  0.43772880  0.35328984    -0.44000
C1221       C  0.49953867  0.28956383  0.53609072    -0.00400
C1222       C  0.50413499  0.33949728  0.54016747    -0.12300
C1223       C  0.49286452  0.37021626  0.56517125     0.01800
C1224       C  0.47655864  0.35112623  0.58700943    -0.00500
C1225       C  0.47113494  0.30212012  0.58081578    -0.12200
C1226       C  0.48247708  0.27118828  0.55610301     0.01700
H1227       H  0.51674198  0.35460259  0.52417851     0.14700
H1228       H  0.45892488  0.28677257  0.59795484     0.14700
C1229       C  0.47681411  0.22011718  0.55430127     0.36400
C1230       C  0.49881187  0.42093278  0.56898579     0.36300
N1231       N  0.47225163  0.17922737  0.55300681    -0.44000
N1232       N  0.50365243  0.46147342  0.57217834    -0.44000
C1233       C  0.51043648  0.09489878  0.35036463    -0.00400
C1234       C  0.51332032  0.04396462  0.34797745    -0.12300
C1235       C  0.50267921  0.01471869  0.32076271     0.01800
C1236       C  0.48895919  0.03626822  0.29408965    -0.00500
C1237       C  0.48592536  0.08705143  0.29633970    -0.12200
C1238       C  0.49635752  0.11638215  0.32410688     0.01700
H1239       H  0.52355785  0.02634434  0.36840982     0.14700
H1240       H  0.47538741  0.10403379  0.27617089     0.14700
C1241       C  0.49163607  0.16793255  0.32559722     0.36400
C1242       C  0.50542851  0.96227871  0.32260726     0.36300
N1243       N  0.48769031  0.20914428  0.32678016    -0.44000
N1244       N  0.50754794  0.92026820  0.32430508    -0.44000
C1245       C  0.49070178  0.94984261  0.49794039    -0.00400
C1246       C  0.48152835  0.97989515  0.46891134    -0.12300
C1247       C  0.48525543  0.03008267  0.46718083     0.01800
C1248       C  0.49898786  0.05113694  0.49413840    -0.00500
C1249       C  0.50780241  0.02136333  0.52380281    -0.12200
C1250       C  0.50403999  0.97120904  0.52561590     0.01700
H1251       H  0.47095694  0.96430327  0.44787079     0.14700
H1252       H  0.51840666  0.03696173  0.54480114     0.14700
C1253       C  0.51412575  0.94322988  0.55632880     0.36400
C1254       C  0.47494760  0.05839916  0.43698453     0.36300
N1255       N  0.52239498  0.92113654  0.58085420    -0.44000
N1256       N  0.46658228  0.08098820  0.41291025    -0.44000
C1257       C  0.70633970  0.82947528  0.34312753    -0.00400
C1258       C  0.72264435  0.84261245  0.36677766    -0.12300
C1259       C  0.72334983  0.88760744  0.38728920     0.01800
C1260       C  0.70744569  0.92073767  0.38420154    -0.00500
C1261       C  0.69134230  0.90799931  0.35983325    -0.12200
C1262       C  0.69070525  0.86324888  0.33909802     0.01700
H1263       H  0.73480140  0.81729703  0.36977339     0.14700
H1264       H  0.67918229  0.93330347  0.35675286     0.14700
C1265       C  0.67416888  0.85425708  0.31261303     0.36400
C1266       C  0.74023974  0.89752010  0.41253897     0.36300
N1267       N  0.66098437  0.84724243  0.29121187    -0.44000
N1268       N  0.75378904  0.90536414  0.43274184    -0.44000
C1269       C  0.60091818  0.14429246  0.42530228    -0.00400
C1270       C  0.60370925  0.09402551  0.41640071    -0.12300
C1271       C  0.62253899  0.07324973  0.41537095     0.01800
C1272       C  0.63909623  0.10311201  0.42189458    -0.00500
C1273       C  0.63643454  0.15377619  0.42799361    -0.12200
C1274       C  0.61764049  0.17435404  0.43036332     0.01700
H1275       H  0.59109962  0.07007760  0.41248238     0.14700
H1276       H  0.64910804  0.17710797  0.43345732     0.14700
C1277       C  0.61604482  0.22597465  0.43950567     0.36400
C1278       C  0.62451636  0.02130122  0.40802338     0.36300
N1279       N  0.61484156  0.26728232  0.44718070    -0.44000
N1280       N  0.62615221  0.97968482  0.40205365    -0.44000
C1281       C  0.74939017  0.21149665  0.28810349    -0.00400
C1282       C  0.75714426  0.16628805  0.30062169    -0.12300
C1283       C  0.74765646  0.13723184  0.32983347     0.01800
C1284       C  0.72958947  0.15252515  0.34713405    -0.00500
C1285       C  0.72170606  0.19754983  0.33460303    -0.12200
C1286       C  0.73134606  0.22702666  0.30564017     0.01700
H1287       H  0.77100926  0.15366230  0.28809878     0.14700
H1288       H  0.70806871  0.21032396  0.34809499     0.14700
C1289       C  0.72251952  0.27350755  0.29576668     0.36400
C1290       C  0.75764913  0.09358684  0.34325209     0.36300
N1291       N  0.71535263  0.31075957  0.28818461    -0.44000
N1292       N  0.76578573  0.05887484  0.35412901    -0.44000
C1293       C  0.73895086  0.20002506  0.49062656    -0.00400
C1294       C  0.74918764  0.22039431  0.45770302    -0.12300
C1295       C  0.75435114  0.26977181  0.45750362     0.01800
C1296       C  0.74932260  0.30005415  0.49089564    -0.00500
C1297       C  0.73910659  0.27955920  0.52403097    -0.12200
C1298       C  0.73406207  0.22986990  0.52431002     0.01700
H1299       H  0.75246788  0.19815535  0.43109139     0.14700
H1300       H  0.73591853  0.30172567  0.55070178     0.14700
C1301       C  0.72448145  0.21005191  0.56000594     0.36400
C1302       C  0.76475151  0.28777849  0.42229895     0.36300
N1303       N  0.71694419  0.19409432  0.58871960    -0.44000
N1304       N  0.77317016  0.30037372  0.39355093    -0.44000
C1305       C  0.53320301  0.91993728  0.84769097    -0.00400
C1306       C  0.55078658  0.89282073  0.84818110    -0.12300
C1307       C  0.55170665  0.84611325  0.86554794     0.01800
C1308       C  0.53479723  0.82532276  0.88388292    -0.00500
C1309       C  0.51712399  0.85198140  0.88282674    -0.12200
C1310       C  0.51615113  0.89855375  0.86499630     0.01700
H1311       H  0.56397547  0.90770211  0.83419338     0.14700
H1312       H  0.50397246  0.83691442  0.89682503     0.14700
C1313       C  0.49747394  0.92343652  0.86571283     0.36400
C1314       C  0.57014813  0.82022591  0.86291645     0.36300
N1315       N  0.48242807  0.94304988  0.86637139    -0.44000
N1316       N  0.58493435  0.79960160  0.86044590    -0.44000
C1317       C  0.50482395  0.20859984  0.74840369    -0.00400
C1318       C  0.51290752  0.23247574  0.71419227    -0.12300
C1319       C  0.51119302  0.28294659  0.70897560     0.01800
C1320       C  0.50103087  0.31124451  0.73809550    -0.00500
C1321       C  0.49399153  0.28817616  0.77334302    -0.12200
C1322       C  0.49535254  0.23731739  0.77845282     0.01700
H1323       H  0.52064594  0.21141847  0.69107344     0.14700
H1324       H  0.48554206  0.30937166  0.79519588     0.14700
C1325       C  0.48609871  0.21598330  0.81377008     0.36400
C1326       C  0.51818959  0.30427523  0.67134006     0.36300
N1327       N  0.47810994  0.20004899  0.84195233    -0.44000
N1328       N  0.52369877  0.32112303  0.64106674    -0.44000
C1329       C  0.51265689  0.15179227  0.89336064    -0.00400
C1330       C  0.49554287  0.13221020  0.91127100    -0.12300
C1331       C  0.48452391  0.15897405  0.93972965     0.01800
C1332       C  0.49080784  0.20636316  0.95186729    -0.00500
C1333       C  0.50855238  0.22470928  0.93559783    -0.12200
C1334       C  0.51937382  0.19822755  0.90661193     0.01700
H1335       H  0.49006076  0.09676370  0.90137630     0.14700
H1336       H  0.51391164  0.26048317  0.94491132     0.14700
C1337       C  0.53729442  0.21982790  0.89108751     0.36400
C1338       C  0.46659079  0.13696311  0.95481733     0.36300
N1339       N  0.55166162  0.23722818  0.87876443    -0.44000
N1340       N  0.45217383  0.11939570  0.96674084    -0.44000
C1341       C  0.56599147  0.10867679  0.66155704    -0.00400
C1342       C  0.56590235  0.15925464  0.65365091    -0.12300
C1343       C  0.56557699  0.17697564  0.61365561     0.01800
C1344       C  0.56509815  0.14370144  0.58046292    -0.00500
C1345       C  0.56716546  0.09339365  0.58844959    -0.12200
C1346       C  0.56771504  0.07576166  0.62840428     0.01700
H1347       H  0.56504858  0.18511381  0.67874017     0.14700
H1348       H  0.56742233  0.06731188  0.56347622     0.14700
C1349       C  0.56976303  0.02360431  0.63440643     0.36400
C1350       C  0.56546712  0.22942967  0.60782729     0.36300
N1351       N  0.57145847  0.98187478  0.63944057    -0.44000
N1352       N  0.56548535  0.27144223  0.60306722    -0.44000
C1353       C  0.50088746  0.96091591  0.69921202    -0.00400
C1354       C  0.48369573  0.97882466  0.68089903    -0.12300
C1355       C  0.47298048  0.95042320  0.65284498     0.01800
C1356       C  0.47951253  0.90293214  0.64180336    -0.00500
C1357       C  0.49597900  0.88393468  0.66188056    -0.12200
C1358       C  0.50654345  0.91195541  0.69032050     0.01700
H1359       H  0.47863521  0.01547553  0.68815106     0.14700
H1360       H  0.50111808  0.84742592  0.65433782     0.14700
C1361       C  0.52301270  0.88880303  0.70996325     0.36400
C1362       C  0.45511586  0.97074223  0.63651629     0.36300
N1363       N  0.53614243  0.87012537  0.72583635    -0.44000
N1364       N  0.44071253  0.98679902  0.62365511    -0.44000
C1365       C  0.70393809  0.32356825  0.84664092    -0.00400
C1366       C  0.72185514  0.34080829  0.86232260    -0.12300
C1367       C  0.72322148  0.38625917  0.88168735     0.01800
C1368       C  0.70631258  0.41600471  0.88556901    -0.00500
C1369       C  0.68826877  0.39809364  0.87102212    -0.12200
C1370       C  0.68686472  0.35242601  0.85198704     0.01700
H1371       H  0.73503441  0.31885435  0.85917504     0.14700
H1372       H  0.67506721  0.41991104  0.87443176     0.14700
C1373       C  0.66769926  0.33715926  0.83788764     0.36400
C1374       C  0.74215590  0.40030764  0.89780353     0.36300
N1375       N  0.65228685  0.32517949  0.82678368    -0.44000
N1376       N  0.75737418  0.41115816  0.91067670    -0.44000
C1377       C  0.67331161  0.13360049  0.65690551    -0.00400
C1378       C  0.67041111  0.16801230  0.62585309    -0.12300
C1379       C  0.66985690  0.15368126  0.58494031     0.01800
C1380       C  0.67264612  0.10380801  0.57437884    -0.00500
C1381       C  0.67354400  0.06895185  0.60572178    -0.12200
C1382       C  0.67376774  0.08318798  0.64662387     0.01700
H1383       H  0.66943118  0.20666195  0.63339796     0.14700
H1384       H  0.67509225  0.03038820  0.59830267     0.14700
C1385       C  0.67584308  0.04518881  0.67683706     0.36400
C1386       C  0.66757329  0.19160123  0.55477112     0.36300
N1387       N  0.67744792  0.01465822  0.70096155    -0.44000
N1388       N  0.66569774  0.22204940  0.53066962    -0.44000
C1389       C  0.60084941  0.10279227  0.81465962    -0.00400
C1390       C  0.61634748  0.06988443  0.81938240    -0.12300
C1391       C  0.63587159  0.08646099  0.81948432     0.01800
C1392       C  0.64011427  0.13712472  0.81394040    -0.00500
C1393       C  0.62449003  0.17012355  0.81137487    -0.12200
C1394       C  0.60503724  0.15362393  0.81162794     0.01700
H1395       H  0.61321679  0.03095001  0.82152716     0.14700
H1396       H  0.62750496  0.20882297  0.80689731     0.14700
C1397       C  0.58985790  0.18944953  0.80441120     0.36400
C1398       C  0.65109133  0.04986823  0.82219136     0.36300
N1399       N  0.57775570  0.21813649  0.79826568    -0.44000
N1400       N  0.66317452  0.02027413  0.82440653    -0.44000
C1401       C  0.73603192  0.28626315  0.68864346    -0.00400
C1402       C  0.73257598  0.33684404  0.68552252    -0.12300
C1403       C  0.74326076  0.36629277  0.65797520     0.01800
C1404       C  0.75793630  0.34524238  0.63243393    -0.00500
C1405       C  0.76123373  0.29451755  0.63565332    -0.12200
C1406       C  0.75050897  0.26520465  0.66291661     0.01700
H1407       H  0.72158150  0.35366019  0.70500548     0.14700
H1408       H  0.77198697  0.27707966  0.61598573     0.14700
C1409       C  0.75417126  0.21306547  0.66234641     0.36400
C1410       C  0.73835875  0.41768834  0.65626344     0.36300
N1411       N  0.75706226  0.17129330  0.66175991    -0.44000
N1412       N  0.73431207  0.45881878  0.65497680    -0.44000
C1413       C  0.20799239  0.42068332  0.38072616    -0.00400
C1414       C  0.19053594  0.39293904  0.38192959    -0.12300
C1415       C  0.18957879  0.34573690  0.36543611     0.01800
C1416       C  0.20640157  0.32499378  0.34681022    -0.00500
C1417       C  0.22385141  0.35268729  0.34547257    -0.12200
C1418       C  0.22479677  0.40000070  0.36194663     0.01700
H1419       H  0.17754368  0.40765994  0.39671807     0.14700
H1420       H  0.23679029  0.33785011  0.33055260     0.14700
C1421       C  0.24316681  0.42628376  0.35823151     0.36400
C1422       C  0.17114715  0.31955231  0.36889187     0.36300
N1423       N  0.25802004  0.44674025  0.35503134    -0.44000
N1424       N  0.15633478  0.29882046  0.37171468    -0.44000
C1425       C  0.26133491  0.40428402  0.59520820    -0.00400
C1426       C  0.24567211  0.38272153  0.57361663    -0.12300
C1427       C  0.23530723  0.40866019  0.54363900     0.01800
C1428       C  0.24057435  0.45763281  0.53410462    -0.00500
C1429       C  0.25678975  0.47838350  0.55451198    -0.12200
C1430       C  0.26704500  0.45260724  0.58464978     0.01700
H1431       H  0.24100140  0.34577697  0.58107494     0.14700
H1432       H  0.26134346  0.51554961  0.54751003     0.14700
C1433       C  0.28340838  0.47700885  0.60402957     0.36400
C1434       C  0.21936527  0.38368150  0.52333065     0.36300
N1435       N  0.29650323  0.49675566  0.61945337    -0.44000
N1436       N  0.20659411  0.36348443  0.50716044    -0.44000
C1437       C  0.25394153  0.71421618  0.28628418    -0.00400
C1438       C  0.25534101  0.66292461  0.28567195    -0.12300
C1439       C  0.24476190  0.63376331  0.31334304     0.01800
C1440       C  0.23263608  0.65586401  0.34345224    -0.00500
C1441       C  0.23091251  0.70736757  0.34323501    -0.12200
C1442       C  0.24126566  0.73639544  0.31510055     0.01700
H1443       H  0.26467470  0.64535948  0.26313031     0.14700
H1444       H  0.22184707  0.72546426  0.36592572     0.14700
C1445       C  0.23927438  0.78902148  0.31781694     0.36400
C1446       C  0.24686664  0.58133915  0.30976305     0.36300
N1447       N  0.23771513  0.83118741  0.31991057    -0.44000
N1448       N  0.24860359  0.53936007  0.30639494    -0.44000
C1449       C  0.24472971  0.69629891  0.48911535    -0.00400
C1450       C  0.25355040  0.71998531  0.45590245    -0.12300
C1451       C  0.25791129  0.76986811  0.45757829     0.01800
C1452       C  0.25358109  0.79689457  0.49322772    -0.00500
C1453       C  0.24512460  0.77298959  0.52680415    -0.12200
C1454       C  0.24079028  0.72298485  0.52512875     0.01700
H1455       H  0.25605911  0.70014995  0.42767644     0.14700
H1456       H  0.24267356  0.79288082  0.55502462     0.14700
C1457       C  0.23257555  0.69972259  0.56088207     0.36400
C1458       C  0.26653932  0.79259045  0.42202412     0.36300
N1459       N  0.22607165  0.68108775  0.58956263    -0.44000
N1460       N  0.27347629  0.81076913  0.39358717    -0.44000
C1461       C  0.03312708  0.82070225  0.38464664    -0.00400
C1462       C  0.04996757  0.83612733  0.36340179    -0.12300
C1463       C  0.05055022  0.88116246  0.34310974     0.01800
C1464       C  0.03419889  0.91323648  0.34504801    -0.00500
C1465       C  0.01713928  0.89712885  0.36527995    -0.12200
C1466       C  0.01634540  0.85135304  0.38448715     0.01700
H1467       H  0.06276567  0.81258733  0.36224188     0.14700
H1468       H  0.00427704  0.92044017  0.36620140     0.14700
C1469       C  0.99813502  0.83768712  0.40425142     0.36400
C1470       C  0.06780658  0.89164990  0.31885861     0.36300
N1471       N  0.98345047  0.82679466  0.41973767    -0.44000
N1472       N  0.08160062  0.89914954  0.29907533    -0.44000
C1473       C  0.10271962  0.64163641  0.42328737    -0.00400
C1474       C  0.11843187  0.67480281  0.42633403    -0.12300
C1475       C  0.13799500  0.65861042  0.42561455     0.01800
C1476       C  0.14229246  0.60788252  0.42188046    -0.00500
C1477       C  0.12667276  0.57482761  0.41757509    -0.12200
C1478       C  0.10710657  0.59096438  0.41794787     0.01700
H1479       H  0.11542175  0.71344328  0.43092441     0.14700
H1480       H  0.12975315  0.53593284  0.41519458     0.14700
C1481       C  0.09198876  0.55372918  0.41568901     0.36400
C1482       C  0.15323133  0.69469283  0.43248827     0.36300
N1483       N  0.08000233  0.52359773  0.41385076    -0.44000
N1484       N  0.16539389  0.72363596  0.43824666    -0.44000
C1485       C  0.99085794  0.53296313  0.28993253    -0.00400
C1486       C  0.00188435  0.50749626  0.31894581    -0.12300
C1487       C  0.01256616  0.53226515  0.34928979     0.01800
C1488       C  0.01273752  0.58436455  0.35087926    -0.00500
C1489       C  0.00226766  0.60969808  0.32058894    -0.12200
C1490       C  0.99140563  0.58472768  0.29057795     0.01700
H1491       H  0.00169802  0.46772261  0.31866476     0.14700
H1492       H  0.00221495  0.64943641  0.32066123     0.14700
C1493       C  0.98135312  0.61327672  0.26023292     0.36400
C1494       C  0.02258017  0.50246106  0.37881060     0.36300
N1495       N  0.97336005  0.63637220  0.23595701    -0.44000
N1496       N  0.03047516  0.47767114  0.40203613    -0.44000
C1497       C  0.00368415  0.54318560  0.49536963    -0.00400
C1498       C  0.98334628  0.53733692  0.49427107    -0.12300
C1499       C  0.97503155  0.49078193  0.49541462     0.01800
C1500       C  0.98738563  0.44899071  0.49702831    -0.00500
C1501       C  0.00769080  0.45488736  0.49854731    -0.12200
C1502       C  0.01598354  0.50139746  0.49753328     0.01700
H1503       H  0.97393816  0.56927554  0.49245139     0.14700
H1504       H  0.01711970  0.42295785  0.50011696     0.14700
C1505       C  0.03715482  0.50421358  0.49573517     0.36400
C1506       C  0.95381808  0.48776355  0.49691543     0.36300
N1507       N  0.05410970  0.50573995  0.49366657    -0.44000
N1508       N  0.93683591  0.48578509  0.49833575    -0.44000
C1509       C  0.20741233  0.82291605  0.84882394    -0.00400
C1510       C  0.19051851  0.85224784  0.84601750    -0.12300
C1511       C  0.18975164  0.89868787  0.86414104     0.01800
C1512       C  0.20627888  0.91700805  0.88531733    -0.00500
C1513       C  0.22303700  0.88741121  0.88858578    -0.12200
C1514       C  0.22366147  0.84066587  0.87118293     0.01700
H1515       H  0.17793217  0.83938099  0.82882872     0.14700
H1516       H  0.23557744  0.90017662  0.90598446     0.14700
C1517       C  0.24091395  0.81128384  0.87825646     0.36400
C1518       C  0.17193293  0.92676868  0.85974240     0.36300
N1519       N  0.25470736  0.78775245  0.88424116    -0.44000
N1520       N  0.15758815  0.94898781  0.85627119    -0.44000
C1521       C  0.17953062  0.63834694  0.65459953    -0.00400
C1522       C  0.18042094  0.58787907  0.64636572    -0.12300
C1523       C  0.18008896  0.57004319  0.60652483     0.01800
C1524       C  0.17864402  0.60316426  0.57357462    -0.00500
C1525       C  0.17569919  0.65318895  0.58209978    -0.12200
C1526       C  0.17617369  0.67100203  0.62210857     0.01700
H1527       H  0.18258788  0.56214252  0.67103934     0.14700
H1528       H  0.17406518  0.67906225  0.55736015     0.14700
C1529       C  0.17343337  0.72289177  0.62864119     0.36400
C1530       C  0.18219157  0.51776550  0.60086599     0.36300
N1531       N  0.17114060  0.76449546  0.63361419    -0.44000
N1532       N  0.18399616  0.47589094  0.59661924    -0.44000
C1533       C  0.24588352  0.55036143  0.74185619    -0.00400
C1534       C  0.25114675  0.52498917  0.77721347    -0.12300
C1535       C  0.25289680  0.47411066  0.77678554     0.01800
C1536       C  0.24955385  0.44793309  0.74029721    -0.00500
C1537       C  0.24437460  0.47339090  0.70495784    -0.12200
C1538       C  0.24283180  0.52426403  0.70531808     0.01700
H1539       H  0.25283669  0.54456595  0.80578178     0.14700
H1540       H  0.24273939  0.45388876  0.67633799     0.14700
C1541       C  0.23840818  0.54908666  0.66768043     0.36400
C1542       C  0.25807640  0.44956976  0.81416477     0.36300
N1543       N  0.23499415  0.56893015  0.63746459    -0.44000
N1544       N  0.26223140  0.43016047  0.84417818    -0.44000
C1545       C  0.25446820  0.53628838  0.94535331    -0.00400
C1546       C  0.23920418  0.51441927  0.92278259    -0.12300
C1547       C  0.22878204  0.54058761  0.89309811     0.01800
C1548       C  0.23341110  0.59040253  0.88512013    -0.00500
C1549       C  0.24821580  0.61273701  0.90867970    -0.12200
C1550       C  0.25867564  0.58647139  0.93831328     0.01700
H1551       H  0.23551416  0.47622058  0.92787012     0.14700
H1552       H  0.25206766  0.65076642  0.90327578     0.14700
C1553       C  0.27343575  0.61250595  0.96135497     0.36400
C1554       C  0.21337202  0.51500209  0.87151425     0.36300
N1555       N  0.28523965  0.63345594  0.97984679    -0.44000
N1556       N  0.20103224  0.49444851  0.85424810    -0.44000
C1557       C  0.24202412  0.79030333  0.69537353    -0.00400
C1558       C  0.25855685  0.77030280  0.67554699    -0.12300
C1559       C  0.26944924  0.79707783  0.64678255     0.01800
C1560       C  0.26406091  0.84570699  0.63699114    -0.00500
C1561       C  0.24798219  0.86647469  0.65794787    -0.12200
C1562       C  0.23698299  0.83947967  0.68662157     0.01700
H1563       H  0.26289001  0.73291916  0.68194666     0.14700
H1564       H  0.24349918  0.90358929  0.65098047     0.14700
C1565       C  0.22069345  0.86355954  0.70654198     0.36400
C1566       C  0.28602943  0.77316510  0.62775336     0.36300
N1567       N  0.20764963  0.88299743  0.72244315    -0.44000
N1568       N  0.29927803  0.75389637  0.61246182    -0.44000
C1569       C  0.03519509  0.41626937  0.84209075    -0.00400
C1570       C  0.04984847  0.38113215  0.83459471    -0.12300
C1571       C  0.04948320  0.33551315  0.85398386     0.01800
C1572       C  0.03430326  0.32434527  0.88189238    -0.00500
C1573       C  0.01945564  0.35909104  0.88892576    -0.12200
C1574       C  0.01979756  0.40473988  0.86949588     0.01700
H1575       H  0.06150262  0.38896529  0.81291133     0.14700
H1576       H  0.00785864  0.35123026  0.91074598     0.14700
C1577       C  0.00467463  0.43975854  0.87971311     0.36400
C1578       C  0.06449463  0.30026208  0.84365495     0.36300
N1579       N  0.99261204  0.46794117  0.88793482    -0.44000
N1580       N  0.07645301  0.27185760  0.83532280    -0.44000
C1581       C  0.06905909  0.64559490  0.57911381    -0.00400
C1582       C  0.06540149  0.67956764  0.61056883    -0.12300
C1583       C  0.06589076  0.66565312  0.65161649     0.01800
C1584       C  0.06920385  0.61615262  0.66199019    -0.00500
C1585       C  0.07484737  0.58347229  0.63099081    -0.12200
C1586       C  0.07549991  0.59813515  0.59009492     0.01700
H1587       H  0.06138696  0.71690616  0.60316171     0.14700
H1588       H  0.07845843  0.54594877  0.63869798     0.14700
C1589       C  0.08316716  0.56382585  0.56059068     0.36400
C1590       C  0.06200708  0.70272032  0.68194826     0.36300
N1591       N  0.08986040  0.53646004  0.53744125    -0.44000
N1592       N  0.05920122  0.73328282  0.70572442    -0.44000
C1593       C  0.14441052  0.63149586  0.80589112    -0.00400
C1594       C  0.12919225  0.66189490  0.81888775    -0.12300
C1595       C  0.10985066  0.64427189  0.82156095     0.01800
C1596       C  0.10530130  0.59502214  0.81052234    -0.00500
C1597       C  0.12078438  0.56434378  0.79843617    -0.12200
C1598       C  0.14013621  0.58200075  0.79598292     0.01700
H1599       H  0.13236505  0.69996332  0.82603723     0.14700
H1600       H  0.11765195  0.52695810  0.78910553     0.14700
C1601       C  0.15502497  0.54958666  0.77981015     0.36400
C1602       C  0.09501757  0.67935112  0.83270637     0.36300
N1603       N  0.16690292  0.52373849  0.76654968    -0.44000
N1604       N  0.08350892  0.70859596  0.84149069    -0.44000
C1605       C  0.98039589  0.40536445  0.63705495    -0.00400
C1606       C  0.98081139  0.45699048  0.63370696    -0.12300
C1607       C  0.99206860  0.48649948  0.66013929     0.01800
C1608       C  0.00345757  0.46489753  0.69107340    -0.00500
C1609       C  0.00289787  0.41357228  0.69500926    -0.12200
C1610       C  0.99145916  0.38395809  0.66888931     0.01700
H1611       H  0.97278997  0.47463486  0.60940622     0.14700
H1612       H  0.01124783  0.39644359  0.71910809     0.14700
C1613       C  0.99128027  0.33178578  0.67603635     0.36400
C1614       C  0.99254185  0.53878203  0.65339323     0.36300
N1615       N  0.99111998  0.29000396  0.68201996    -0.44000
N1616       N  0.99305300  0.58066980  0.64800302    -0.44000
C1617       C  0.95529010  0.66938441  0.09897392    -0.00400
C1618       C  0.93846402  0.63929794  0.09900718    -0.12300
C1619       C  0.93840443  0.59334501  0.11785201     0.01800
C1620       C  0.95551840  0.57620682  0.13752446    -0.00500
C1621       C  0.97231087  0.60633292  0.13773181    -0.12200
C1622       C  0.97231732  0.65254176  0.11918997     0.01700
H1623       H  0.92531419  0.65111459  0.08335262     0.14700
H1624       H  0.98541339  0.59435336  0.15347369     0.14700
C1625       C  0.98991093  0.68204463  0.12247876     0.36400
C1626       C  0.92065350  0.56426769  0.11536026     0.36300
N1627       N  0.00403711  0.70555600  0.12529766    -0.44000
N1628       N  0.90639557  0.54113297  0.11331007    -0.44000
C1629       C  0.97916651  0.90377247  0.13383777    -0.00400
C1630       C  0.98087831  0.95521135  0.13108605    -0.12300
C1631       C  0.99134760  0.98266975  0.16022041     0.01800
C1632       C  0.00089596  0.95887422  0.19277242    -0.00500
C1633       C  0.99899544  0.90778275  0.19603642    -0.12200
C1634       C  0.98794963  0.88044332  0.16768904     0.01700
H1635       H  0.97438360  0.97419785  0.10554411     0.14700
H1636       H  0.00567439  0.88926499  0.22161884     0.14700
C1637       C  0.98516249  0.82882168  0.17526591     0.36400
C1638       C  0.99257577  0.03522408  0.15531530     0.36300
N1639       N  0.98263240  0.78756448  0.18153868    -0.44000
N1640       N  0.99351821  0.07734419  0.15159077    -0.44000
C1641       C  0.99902775  0.04633700  0.98522486    -0.00400
C1642       C  0.00768134  0.01552925  0.01432364    -0.12300
C1643       C  0.00342347  0.96561570  0.01569331     0.01800
C1644       C  0.98961548  0.94551184  0.98834783    -0.00500
C1645       C  0.98109407  0.97610985  0.95890384    -0.12200
C1646       C  0.98556669  0.02602242  0.95716452     0.01700
H1647       H  0.01831769  0.03025295  0.03568158     0.14700
H1648       H  0.97036940  0.96125699  0.93779328     0.14700
C1649       C  0.97628012  0.05477703  0.92585390     0.36400
C1650       C  0.01322298  0.93660169  0.04615476     0.36300
N1651       N  0.96877983  0.07760331  0.90072551    -0.44000
N1652       N  0.02112406  0.91331772  0.07044374    -0.44000
C1653       C  0.98822712  0.70029176  0.94685240    -0.00400
C1654       C  0.00815264  0.71198851  0.93977926    -0.12300
C1655       C  0.02007507  0.68359211  0.91391448     0.01800
C1656       C  0.01221253  0.64258740  0.89324893    -0.00500
C1657       C  0.99263035  0.62903636  0.90200741    -0.12200
C1658       C  0.98072923  0.65695231  0.92854651     0.01700
H1659       H  0.01463649  0.74360969  0.95471000     0.14700
H1660       H  0.98626813  0.59744026  0.88679905     0.14700
C1661       C  0.96084698  0.64031754  0.93566467     0.36400
C1662       C  0.04059481  0.69626291  0.91095033     0.36300
N1663       N  0.94495608  0.62666797  0.94146839    -0.44000
N1664       N  0.05707815  0.70663488  0.91001455    -0.44000
C1665       C  0.78401570  0.16729314  0.13466950    -0.00400
C1666       C  0.76840869  0.13401757  0.14000066    -0.12300
C1667       C  0.76853595  0.08818776  0.12078516     0.01800
C1668       C  0.78436881  0.07532694  0.09502709    -0.00500
C1669       C  0.79994475  0.10868040  0.08965110    -0.12200
C1670       C  0.79991668  0.15424407  0.10917003     0.01700
H1671       H  0.75634547  0.14317732  0.16030635     0.14700
H1672       H  0.81204650  0.09959926  0.06941754     0.14700
C1673       C  0.81614697  0.18728660  0.10158875     0.36400
C1674       C  0.75272004  0.05428645  0.12951908     0.36300
N1675       N  0.82917194  0.21371824  0.09559675    -0.44000
N1676       N  0.74016297  0.02682551  0.13658311    -0.44000
C1677       C  0.75384288  0.03728211  0.93793793    -0.00400
C1678       C  0.75112682  0.08783356  0.94384942    -0.12300
C1679       C  0.73989809  0.11565122  0.91648272     0.01800
C1680       C  0.73150426  0.09304065  0.88175419    -0.00500
C1681       C  0.73427168  0.04224936  0.87625185    -0.12200
C1682       C  0.74523950  0.01454861  0.90373413     0.01700
H1683       H  0.75731837  0.10536978  0.97057749     0.14700
H1684       H  0.72830692  0.02397586  0.84964045     0.14700
C1685       C  0.74808307  0.96303248  0.89527686     0.36400
C1686       C  0.73664987  0.16674346  0.92569731     0.36300
N1687       N  0.75041912  0.92179410  0.88856818    -0.44000
N1688       N  0.73387598  0.20761111  0.93322557    -0.44000
C1689       C  0.88876951  0.85193559  0.06037885    -0.00400
C1690       C  0.88595387  0.90312122  0.05998991    -0.12300
C1691       C  0.86708473  0.92348898  0.05850944     0.01800
C1692       C  0.85047122  0.89252109  0.05837392    -0.00500
C1693       C  0.85328884  0.84149304  0.06207110    -0.12200
C1694       C  0.87217471  0.82109886  0.06262699     0.01700
H1695       H  0.89858489  0.92744772  0.05833740     0.14700
H1696       H  0.84068784  0.81700254  0.06222276     0.14700
C1697       C  0.87413159  0.76853109  0.06512291     0.36400
C1698       C  0.86521473  0.97610973  0.05638450     0.36300
N1699       N  0.87569475  0.72640056  0.06730750    -0.44000
N1700       N  0.86370723  0.01828969  0.05469899    -0.44000
C1701       C  0.73820214  0.78971753  0.19077658    -0.00400
C1702       C  0.75483680  0.76968692  0.17126150    -0.12300
C1703       C  0.76572548  0.79629134  0.14229535     0.01800
C1704       C  0.76007233  0.84444502  0.13163129    -0.00500
C1705       C  0.74394728  0.86528005  0.15233159    -0.12200
C1706       C  0.73311674  0.83875025  0.18154058     0.01700
H1707       H  0.75936048  0.73263828  0.17834261     0.14700
H1708       H  0.73937349  0.90220278  0.14494552     0.14700
C1709       C  0.71706452  0.86337981  0.20181114     0.36400
C1710       C  0.78281154  0.77317428  0.12455054     0.36300
N1711       N  0.70425840  0.88326733  0.21815000    -0.44000
N1712       N  0.79654362  0.75469224  0.11047350    -0.44000
C1713       C  0.74064190  0.69838784  0.98388260    -0.00400
C1714       C  0.73137577  0.72975327  0.01209625    -0.12300
C1715       C  0.73530096  0.77984881  0.01286390     0.01800
C1716       C  0.74948446  0.79955374  0.98602807    -0.00500
C1717       C  0.75850671  0.76847306  0.95725678    -0.12200
C1718       C  0.75433523  0.71840873  0.95600910     0.01700
H1719       H  0.72047050  0.71534983  0.03313256     0.14700
H1720       H  0.76942301  0.78307411  0.93633046     0.14700
C1721       C  0.76421698  0.68928469  0.92538376     0.36400
C1722       C  0.72457120  0.80951786  0.04184770     0.36300
N1723       N  0.77222783  0.66640435  0.90069834    -0.44000
N1724       N  0.71578946  0.83309255  0.06488858    -0.44000
C1725       C  0.95663959  0.07778905  0.63853323    -0.00400
C1726       C  0.95889994  0.07872706  0.59631457    -0.12300
C1727       C  0.95817964  0.12316364  0.57541728     0.01800
C1728       C  0.95674126  0.16765559  0.59734368    -0.00500
C1729       C  0.95439438  0.16671833  0.63960242    -0.12200
C1730       C  0.95368533  0.12199235  0.66020065     0.01700
H1731       H  0.96019407  0.04455068  0.57954583     0.14700
H1732       H  0.95239354  0.20077136  0.65623591     0.14700
C1733       C  0.94876966  0.12235747  0.70298607     0.36400
C1734       C  0.95687584  0.12140000  0.53163681     0.36300
N1735       N  0.94430188  0.12324206  0.73701033    -0.44000
N1736       N  0.95507585  0.11846480  0.49670801    -0.44000
C1737       C  0.98902014  0.03527869  0.78784195    -0.00400
C1738       C  0.98874731  0.08672407  0.78573146    -0.12300
C1739       C  0.99943750  0.11589003  0.81331575     0.01800
C1740       C  0.01081890  0.09354456  0.84414699    -0.00500
C1741       C  0.01160700  0.04194342  0.84504968    -0.12200
C1742       C  0.00085371  0.01300980  0.81768357     0.01700
H1743       H  0.98029390  0.10432328  0.76215740     0.14700
H1744       H  0.02001976  0.02367993  0.86844397     0.14700
C1745       C  0.00139653  0.96043070  0.82253185     0.36400
C1746       C  0.99823408  0.16849395  0.80922910     0.36300
N1747       N  0.00177138  0.91830998  0.82646524    -0.44000
N1748       N  0.99728127  0.21065584  0.80601855    -0.44000
C1749       C  0.92467461  0.89176456  0.82553215    -0.00400
C1750       C  0.92188237  0.84138977  0.83258529    -0.12300
C1751       C  0.92197150  0.82224036  0.87214972     0.01800
C1752       C  0.92445577  0.85388179  0.90592365    -0.00500
C1753       C  0.92559258  0.90461342  0.89903946    -0.12200
C1754       C  0.92592727  0.92372983  0.85957770     0.01700
H1755       H  0.92071874  0.81630683  0.80702303     0.14700
H1756       H  0.92742685  0.92952479  0.92456421     0.14700
C1757       C  0.92841978  0.97613349  0.85545551     0.36400
C1758       C  0.92001145  0.76986937  0.87688202     0.36300
N1759       N  0.93056191  0.01807604  0.85242287    -0.44000
N1760       N  0.91851016  0.72783840  0.88046270    -0.44000
C1761       C  0.97864690  0.84348977  0.59422562    -0.00400
C1762       C  0.99616566  0.86210417  0.57719396    -0.12300
C1763       C  0.00748835  0.83467864  0.54940280     0.01800
C1764       C  0.00161931  0.78662193  0.53807942    -0.00500
C1765       C  0.98352263  0.76905727  0.55355739    -0.12200
C1766       C  0.97205898  0.79688826  0.58090789     0.01700
H1767       H  0.00145182  0.89795451  0.58652539     0.14700
H1768       H  0.97823235  0.73313791  0.54444439     0.14700
C1769       C  0.95331698  0.77722580  0.59384201     0.36400
C1770       C  0.02497783  0.85739573  0.53295441     0.36300
N1771       N  0.93819269  0.76174584  0.60383410    -0.44000
N1772       N  0.03893451  0.87574351  0.51958381    -0.44000
C1773       C  0.98790334  0.79612403  0.73885810    -0.00400
C1774       C  0.00676958  0.79382289  0.75478541    -0.12300
C1775       C  0.01504450  0.74853078  0.76356749     0.01800
C1776       C  0.00463966  0.70472322  0.75440503    -0.00500
C1777       C  0.98562470  0.70706694  0.73911890    -0.12200
C1778       C  0.97711122  0.75241747  0.73142720     0.01700
H1779       H  0.01475145  0.82737946  0.76151990     0.14700
H1780       H  0.97760854  0.67355059  0.73245930     0.14700
C1781       C  0.95747183  0.75288806  0.71487289     0.36400
C1782       C  0.03374116  0.74834739  0.78412020     0.36300
N1783       N  0.94170071  0.75313323  0.70185228    -0.44000
N1784       N  0.04866293  0.74883060  0.80081427    -0.44000
C1785       C  0.78404375  0.57945566  0.59429040    -0.00400
C1786       C  0.76790008  0.59088491  0.61923862    -0.12300
C1787       C  0.76659231  0.63637953  0.63882211     0.01800
C1788       C  0.78179828  0.67144392  0.63369330    -0.00500
C1789       C  0.79766678  0.66041213  0.60796036    -0.12200
C1790       C  0.79879710  0.61534375  0.58787856     0.01700
H1791       H  0.75631410  0.56397963  0.62373913     0.14700
H1792       H  0.80920595  0.68738507  0.60319389     0.14700
C1793       C  0.81469484  0.60837316  0.55917399     0.36400
C1794       C  0.74981248  0.64507489  0.66495073     0.36300
N1795       N  0.82736302  0.60329799  0.53593751    -0.44000
N1796       N  0.73631628  0.65200696  0.68572544    -0.44000
C1797       C  0.73689956  0.96163798  0.54024775    -0.00400
C1798       C  0.73667411  0.91023038  0.53767402    -0.12300
C1799       C  0.74740701  0.88132388  0.56506330     0.01800
C1800       C  0.75863025  0.90384516  0.59631390    -0.00500
C1801       C  0.75894985  0.95547243  0.59829953    -0.12200
C1802       C  0.74823104  0.98418489  0.57103685     0.01700
H1803       H  0.72825094  0.89251010  0.51380052     0.14700
H1804       H  0.76704708  0.97385261  0.62230078     0.14700
C1805       C  0.74828904  0.03672909  0.57686648     0.36400
C1806       C  0.74656099  0.82877770  0.56005284     0.36300
N1807       N  0.74825278  0.07878373  0.58162544    -0.44000
N1808       N  0.74585084  0.78666392  0.55591969    -0.44000
C1809       C  0.75043403  0.95087736  0.73803353    -0.00400
C1810       C  0.75969594  0.98267692  0.76583340    -0.12300
C1811       C  0.75568143  0.03263821  0.76618658     0.01800
C1812       C  0.74171811  0.05153234  0.73878085    -0.00500
C1813       C  0.73288497  0.01997418  0.71030775    -0.12200
C1814       C  0.73670974  0.97003479  0.71024898     0.01700
H1815       H  0.77055112  0.96864284  0.78686737     0.14700
H1816       H  0.72212731  0.03401658  0.68906697     0.14700
C1817       C  0.72630053  0.94003974  0.68104539     0.36400
C1818       C  0.76588508  0.06286316  0.79557469     0.36300
N1819       N  0.71781868  0.91632765  0.65766369    -0.44000
N1820       N  0.77411794  0.08686578  0.81914542    -0.44000
C1821       C  0.81591476  0.85761576  0.82133859    -0.00400
C1822       C  0.81475504  0.90812866  0.82901308    -0.12300
C1823       C  0.81439161  0.92638486  0.86874728     0.01800
C1824       C  0.81557712  0.89365590  0.90208211    -0.00500
C1825       C  0.81865863  0.84356021  0.89413151    -0.12200
C1826       C  0.81875110  0.82533605  0.85427401     0.01700
H1827       H  0.81276317  0.93341843  0.80396164     0.14700
H1828       H  0.81994599  0.81795225  0.91913930     0.14700
C1829       C  0.82131899  0.77328501  0.84821787     0.36400
C1830       C  0.81173193  0.97858588  0.87380798     0.36300
N1831       N  0.82336728  0.73159815  0.84325574    -0.44000
N1832       N  0.80945189  0.02037968  0.87754035    -0.44000
C1833       C  0.85007241  0.85533743  0.66891565    -0.00400
C1834       C  0.85297153  0.90662921  0.66788020    -0.12300
C1835       C  0.87187304  0.92736363  0.67008845     0.01800
C1836       C  0.88841247  0.89665453  0.67167802    -0.00500
C1837       C  0.88554978  0.84544677  0.67025766    -0.12200
C1838       C  0.86667951  0.82473290  0.66973474     0.01700
H1839       H  0.84036777  0.93083351  0.66792389     0.14700
H1840       H  0.89811955  0.82121565  0.67198683     0.14700
C1841       C  0.86478697  0.77205037  0.67145039     0.36400
C1842       C  0.87389224  0.98003110  0.67150901     0.36300
N1843       N  0.86323735  0.72985014  0.67314472    -0.44000
N1844       N  0.87556155  0.02223862  0.67279183    -0.44000
C1845       C  0.75217872  0.71078685  0.78943396    -0.00400
C1846       C  0.75283403  0.65941558  0.78677360    -0.12300
C1847       C  0.74212566  0.62960564  0.81393189     0.01800
C1848       C  0.73020173  0.65116708  0.84469552    -0.00500
C1849       C  0.72952046  0.70275777  0.84683143    -0.12200
C1850       C  0.74049918  0.73231769  0.82025643     0.01700
H1851       H  0.76172333  0.64238228  0.76320306     0.14700
H1852       H  0.72106203  0.72049907  0.87070434     0.14700
C1853       C  0.74060954  0.78460493  0.82732813     0.36400
C1854       C  0.74412596  0.57718005  0.80972069     0.36300
N1855       N  0.74086505  0.82641589  0.83334652    -0.44000
N1856       N  0.74590843  0.53519788  0.80627442    -0.44000
loop_ 
_geom_bond_atom_site_label_1 
_geom_bond_atom_site_label_2 
_geom_bond_distance 
_geom_bond_site_symmetry_2 
_ccdc_geom_bond_type 
O1          Cr19   1.968       .  S
O1            C9   1.258       .  A
O2          Cr19   2.035       .  S
O2            C3   1.271       .  A
C3            O4   1.260       .  A
C3         C1845   1.491       .  S
O4          Cr20   1.976       .  S
O5          Cr20   2.008       .  S
O5            C6   1.263       .  A
C6            O7   1.247       .  A
C6         C1809   1.467       .  S
O7          Cr21   1.943       .  S
O8          Cr21   2.006       .  S
O8            C9   1.264       .  A
C9         C1821   1.478       .  S
O10         Cr19   2.039       .  S
O10          C18   1.274       .  A
O11         Cr19   1.964       .  S
O11          C12   1.263       .  A
C12          O13   1.269       .  A
C12        C1788   1.477       .  S
O13         Cr20   2.009       .  S
O14         Cr20   1.983       .  S
O14          C15   1.264       .  A
C15          O16   1.271       .  A
C15        C1800   1.500       .  S
O16         Cr21   2.022       .  S
O17         Cr21   1.956       .  S
O17          C18   1.256       .  A
C18        C1833   1.488       .  S
Cr19         O22   1.762       .  S
Cr20         O22   1.768       .  S
Cr21         O22   1.757       .  S
O23         Cr41   1.962       .  S
O23          C31   1.256       .  A
O24         Cr41   2.034   1_545  S
O24          C25   1.270       .  A
C25          O26   1.260   1_545  A
C25        C1737   1.492       .  S
O26         Cr42   1.975       .  S
O27         Cr42   2.029       .  S
O27          C28   1.268       .  A
C28          O29   1.245       .  A
C28        C1773   1.457       .  S
O29         Cr43   1.932       .  S
O30         Cr43   2.024       .  S
O30          C31   1.269       .  A
C31        C1749   1.490       .  S
O32         Cr41   2.049       .  S
O32          C40   1.275       .  A
O33         Cr41   1.956   1_545  S
O33          C34   1.260       .  A
C34          O35   1.272       .  A
C34        C1725   1.462       .  S
O35         Cr42   2.022   1_545  S
O36         Cr42   1.983       .  S
O36          C37   1.264       .  A
C37          O38   1.271       .  A
C37        C1761   1.503       .  S
O38         Cr43   2.035       .  S
O39         Cr43   1.949       .  S
O39          C40   1.254       .  A
C40        C1836   1.486       .  S
Cr41         O44   1.767       .  S
Cr42         O44   1.768       .  S
Cr43         O44   1.757       .  S
O45         Cr63   1.962   1_556  S
O45          C53   1.256       .  A
O46         Cr63   2.035   1_546  S
O46          C47   1.270       .  A
C47          O48   1.259   1_545  A
C47        C1677   1.484       .  S
O48         Cr64   1.973   1_556  S
O49         Cr64   2.017       .  S
O49          C50   1.265   1_554  A
C50          O51   1.248       .  A
C50        C1716   1.473       .  S
O51         Cr65   1.944   1_556  S
O52         Cr65   2.014   1_556  S
O52          C53   1.266       .  A
C53        C1824   1.485       .  S
O54         Cr63   2.042       .  S
O54          C62   1.275       .  A
O55         Cr63   1.961   1_545  S
O55          C56   1.262       .  A
C56          O57   1.271       .  A
C56        C1668   1.477       .  S
O57         Cr64   2.014   1_545  S
O58         Cr64   1.983       .  S
O58          C59   1.265       .  A
C59          O60   1.272       .  A
C59        C1704   1.501       .  S
O60         Cr65   2.029       .  S
O61         Cr65   1.954       .  S
O61          C62   1.256       .  A
C62        C1692   1.487       .  S
Cr63         O66   1.764       .  S
Cr64         O66   1.765       .  S
Cr65         O66   1.755       .  S
O67         Cr85   1.982   1_556  S
O67          C75   1.260       .  A
O68         Cr85   2.037   1_556  S
O68          C69   1.272       .  A
C69          O70   1.262       .  A
C69        C1653   1.508       .  S
O70         Cr86   1.978   1_556  S
O71         Cr86   2.018       .  S
O71          C72   1.267   1_554  A
C72          O73   1.248       .  A
C72        C1644   1.474       .  S
O73         Cr87   1.943   1_556  S
O74         Cr87   2.010   1_556  S
O74          C75   1.265       .  A
C75        C1752   1.488       .  S
O76         Cr85   2.044       .  S
O76          C84   1.276       .  A
O77         Cr85   1.974       .  S
O77          C78   1.265       .  A
C78          O79   1.270       .  A
C78        C1617   1.491       .  S
O79         Cr86   2.014       .  S
O80         Cr86   1.986       .  S
O80          C81   1.264       .  A
C81          O82   1.271       .  A
C81        C1629   1.506       .  S
O82         Cr87   2.032       .  S
O83         Cr87   1.955       .  S
O83          C84   1.256       .  A
C84        C1689   1.485       .  S
Cr85         O88   1.768       .  S
Cr86         O88   1.766       .  S
Cr87         O88   1.762       .  S
O89        Cr107   2.039       .  S
O89          C97   1.272       .  A
O90        Cr107   1.969       .  S
O90          C91   1.265       .  A
C91          O92   1.274       .  A
C91        C1569   1.484       .  S
O92        Cr108   2.022       .  S
O93        Cr108   1.982       .  S
O93          C94   1.263       .  A
C94          O95   1.272       .  A
C94        C1656   1.502       .  S
O95        Cr109   2.034       .  S
O96        Cr109   1.961       .  S
O96          C97   1.254       .  A
C97        C1596   1.494       .  S
O98        Cr107   1.974       .  S
O98         C106   1.263       .  A
O99        Cr107   2.036       .  S
O99         C100   1.270       .  A
C100        O101   1.262       .  A
C100       C1608   1.500       .  S
O101       Cr108   1.991       .  S
O102       Cr108   2.024       .  S
O102        C103   1.267       .  A
C103        O104   1.246       .  A
C103       C1776   1.460       .  S
O104       Cr109   1.930       .  S
O105       Cr109   2.028       .  S
O105        C106   1.271       .  A
C106       C1584   1.489       .  S
Cr107       O110   1.772       .  S
Cr108       O110   1.773       .  S
Cr109       O110   1.765       .  S
O111       Cr129   2.045       .  S
O111        C119   1.277       .  A
O112       Cr129   1.967       .  S
O112        C113   1.262       .  A
C113        O114   1.270       .  A
C113       C1509   1.483       .  S
O114       Cr130   2.011       .  S
O115       Cr130   1.989       .  S
O115        C116   1.266       .  A
C116        O117   1.270       .  A
C116       C1548   1.504       .  S
O117       Cr131   2.027       .  S
O118       Cr131   1.949       .  S
O118        C119   1.255       .  A
C119       C1593   1.480       .  S
O120       Cr129   1.978       .  S
O120        C128   1.258       .  A
O121       Cr129   2.036       .  S
O121        C122   1.273       .  A
C122        O123   1.262       .  A
C122       C1557   1.502       .  S
O123       Cr130   1.976       .  S
O124       Cr130   2.023       .  S
O124        C125   1.266       .  A
C125        O126   1.246       .  A
C125       C1533   1.459       .  S
O126       Cr131   1.944       .  S
O127       Cr131   2.003       .  S
O127        C128   1.262       .  A
C128       C1521   1.481       .  S
Cr129       O132   1.765       .  S
Cr130       O132   1.771       .  S
Cr131       O132   1.753       .  S
O133       Cr151   2.056       .  S
O133        C141   1.278       .  A
O134       Cr151   1.976       .  S
O134        C135   1.265       .  A
C135        O136   1.269       .  A
C135       C1461   1.489       .  S
O136       Cr152   2.012       .  S
O137       Cr152   1.985       .  S
O137        C138   1.265       .  A
C138        O139   1.271       .  A
C138       C1488   1.507       .  S
O139       Cr153   2.036       .  S
O140       Cr153   1.952       .  S
O140        C141   1.254       .  A
C141       C1473   1.496       .  S
O142       Cr151   1.980       .  S
O142        C150   1.261       .  A
O143       Cr151   2.040       .  S
O143        C144   1.275       .  A
C144        O145   1.262       .  A
C144       C1764   1.509       .  S
O145       Cr152   1.980       .  S
O146       Cr152   2.015       .  S
O146        C147   1.266       .  A
C147        O148   1.244       .  A
C147       C1497   1.458       .  S
O148       Cr153   1.938       .  S
O149       Cr153   2.021       .  S
O149        C150   1.266       .  A
C150       C1581   1.497       .  S
Cr151       O154   1.761       .  S
Cr152       O154   1.772       .  S
Cr153       O154   1.757       .  S
O155       Cr173   2.045       .  S
O155        C163   1.275       .  A
O156       Cr173   1.965       .  S
O156        C157   1.263       .  A
C157        O158   1.270       .  A
C157       C1413   1.487       .  S
O158       Cr174   2.018       .  S
O159       Cr174   1.981       .  S
O159        C160   1.264       .  A
C160        O161   1.272       .  A
C160       C1440   1.502       .  S
O161       Cr175   2.026       .  S
O162       Cr175   1.958       .  S
O162        C163   1.256       .  A
C163       C1476   1.490       .  S
O164       Cr173   1.962       .  S
O164        C172   1.256       .  A
O165       Cr173   2.037       .  S
O165        C166   1.273       .  A
C166        O167   1.262       .  A
C166       C1428   1.505       .  S
O167       Cr174   1.980       .  S
O168       Cr174   2.020       .  S
O168        C169   1.267       .  A
C169        O170   1.248       .  A
C169       C1449   1.464       .  S
O170       Cr175   1.946       .  S
O171       Cr175   2.012       .  S
O171        C172   1.265       .  A
C172       C1524   1.485       .  S
Cr173       O176   1.761       .  S
Cr174       O176   1.769       .  S
Cr175       O176   1.759       .  S
O177       Cr195   2.038       .  S
O177        C185   1.277       .  A
O178       Cr195   1.960       .  S
O178        C179   1.259       .  A
C179        O180   1.269       .  A
C179       C1365   1.480       .  S
O180       Cr196   2.003       .  S
O181       Cr196   1.988       .  S
O181        C182   1.264       .  A
C182        O183   1.268       .  A
C182       C1680   1.497       .  S
O183       Cr197   2.014       .  S
O184       Cr197   1.952       .  S
O184        C185   1.255       .  A
C185       C1392   1.484       .  S
O186       Cr195   1.976       .  S
O186        C194   1.259       .  A
O187       Cr195   2.041       .  S
O187        C188   1.273       .  A
C188        O189   1.258       .  A
C188       C1401   1.498       .  S
O189       Cr196   1.968       .  S
O190       Cr196   2.007       .  S
O190        C191   1.264       .  A
C191        O192   1.250       .  A
C191       C1812   1.466       .  S
O192       Cr197   1.943       .  S
O193       Cr197   2.004       .  S
O193        C194   1.261       .  A
C194       C1377   1.483       .  S
Cr195       O198   1.762       .  S
Cr196       O198   1.768       .  S
Cr197       O198   1.753       .  S
O199       Cr217   2.040       .  S
O199        C207   1.273       .  A
O200       Cr217   1.960   1_565  S
O200        C201   1.263       .  A
C201        O202   1.276       .  A
C201       C1305   1.494       .  S
O202       Cr218   2.038   1_565  S
O203       Cr218   1.973       .  S
O203        C204   1.260       .  A
C204        O205   1.269       .  A
C204       C1329   1.489       .  S
O205       Cr219   2.022       .  S
O206       Cr219   1.947       .  S
O206        C207   1.251       .  A
C207       C1389   1.476       .  S
O208       Cr217   1.968       .  S
O208        C216   1.258       .  A
O209       Cr217   2.020   1_565  S
O209        C210   1.270       .  A
C210        O211   1.266   1_565  A
C210       C1353   1.502       .  S
O211       Cr218   1.989       .  S
O212       Cr218   2.066       .  S
O212        C213   1.275       .  A
C213        O214   1.243       .  A
C213       C1317   1.481       .  S
O214       Cr219   1.927       .  S
O215       Cr219   2.019       .  S
O215        C216   1.267       .  A
C216       C1341   1.486       .  S
Cr217       O220   1.756       .  S
Cr218       O220   1.768       .  S
Cr219       O220   1.749       .  S
O221       Cr239   2.041       .  S
O221        C229   1.274       .  A
O222       Cr239   1.969   1_565  S
O222        C223   1.263       .  A
C223        O224   1.269       .  A
C223       C1260   1.481       .  S
O224       Cr240   2.010   1_565  S
O225       Cr240   1.976       .  S
O225        C226   1.262       .  A
C226        O227   1.270       .  A
C226       C1284   1.493       .  S
O227       Cr241   2.025       .  S
O228       Cr241   1.952       .  S
O228        C229   1.254       .  A
C229       C1272   1.481       .  S
O230       Cr239   1.969       .  S
O230        C238   1.260       .  A
O231       Cr239   2.035   1_565  S
O231        C232   1.272       .  A
C232        O233   1.260   1_565  A
C232       C1797   1.489       .  S
O233       Cr240   1.971       .  S
O234       Cr240   2.015       .  S
O234        C235   1.267       .  A
C235        O236   1.249       .  A
C235       C1293   1.465       .  S
O236       Cr241   1.949       .  S
O237       Cr241   2.010       .  S
O237        C238   1.265       .  A
C238       C1380   1.486       .  S
Cr239       O242   1.765       .  S
Cr240       O242   1.763       .  S
Cr241       O242   1.759       .  S
O243       Cr261   2.045       .  S
O243        C251   1.277       .  A
O244       Cr261   1.965       .  S
O244        C245   1.261       .  A
C245        O246   1.271       .  A
C245       C1209   1.489       .  S
O246       Cr262   2.017       .  S
O247       Cr262   1.967       .  S
O247        C248   1.258       .  A
C248        O249   1.272       .  A
C248       C1233   1.495       .  S
O249       Cr263   2.029       .  S
O250       Cr263   1.951       .  S
O250        C251   1.256       .  A
C251       C1269   1.490       .  S
O252       Cr261   1.973       .  S
O252        C260   1.258       .  A
O253       Cr261   2.038       .  S
O253        C254   1.274       .  A
C254        O255   1.253       .  A
C254       C1221   1.489       .  S
O255       Cr262   1.950       .  S
O256       Cr262   2.023       .  S
O256        C257   1.267       .  A
C257        O258   1.248       .  A
C257       C1248   1.472       .  S
O258       Cr263   1.941       .  S
O259       Cr263   2.017       .  S
O259        C260   1.266       .  A
C260       C1344   1.490       .  S
Cr261       O264   1.758       .  S
Cr262       O264   1.764       .  S
Cr263       O264   1.752       .  S
O265       Cr283   2.043       .  S
O265        C273   1.276       .  A
O266       Cr283   1.955       .  S
O266        C267   1.260       .  A
C267        O268   1.273       .  A
C267       C1257   1.480       .  S
O268       Cr284   2.024       .  S
O269       Cr284   1.984       .  S
O269        C270   1.264       .  A
C270        O271   1.271       .  A
C270       C1188   1.498       .  S
O271       Cr285   2.029       .  S
O272       Cr285   1.954       .  S
O272        C273   1.255       .  A
C273       C1173   1.485       .  S
O274       Cr283   1.968       .  S
O274        C282   1.257       .  A
O275       Cr283   2.036       .  S
O275        C276   1.272       .  A
C276        O277   1.261       .  A
C276       C1701   1.504       .  S
O277       Cr284   1.978       .  S
O278       Cr284   2.024       .  S
O278        C279   1.268       .  A
C279        O280   1.245       .  A
C279       C1200   1.472       .  S
O280       Cr285   1.933       .  S
O281       Cr285   2.014       .  S
O281        C282   1.266       .  A
C282       C1164   1.484       .  S
Cr283       O286   1.760       .  S
Cr284       O286   1.769       .  S
Cr285       O286   1.755       .  S
O287       Cr305   2.045       .  S
O287        C295   1.276       .  A
O288       Cr305   1.971       .  S
O288        C289   1.265       .  A
C289        O290   1.269       .  A
C289       C1212   1.491       .  S
O290       Cr306   2.011       .  S
O291       Cr306   1.989       .  S
O291        C292   1.266       .  A
C292        O293   1.268       .  A
C292       C1128   1.502       .  S
O293       Cr307   2.015       .  S
O294       Cr307   1.952       .  S
O294        C295   1.256       .  A
C295       C1176   1.486       .  S
O296       Cr305   1.980       .  S
O296        C304   1.259       .  A
O297       Cr305   2.026       .  S
O297        C298   1.271       .  A
C298        O299   1.260       .  A
C298       C1140   1.494       .  S
O299       Cr306   1.972       .  S
O300       Cr306   2.014       .  S
O300        C301   1.264       .  A
C301        O302   1.248       .  A
C301       C1113   1.468       .  S
O302       Cr307   1.942       .  S
O303       Cr307   2.007       .  S
O303        C304   1.262       .  A
C304       C1152   1.489       .  S
Cr305       O308   1.763       .  S
Cr306       O308   1.770       .  S
Cr307       O308   1.754       .  S
O309       Cr327   2.049       .  S
O309        C317   1.275       .  A
O310       Cr327   1.957       .  S
O310        C311   1.261       .  A
C311        O312   1.269       .  A
C311       C1368   1.480       .  S
O312       Cr328   2.010       .  S
O313       Cr328   1.983       .  S
O313        C314   1.263       .  A
C314        O315   1.272       .  A
C314       C1848   1.502       .  S
O315       Cr329   2.026       .  S
O316       Cr329   1.953       .  S
O316        C317   1.255       .  A
C317       C1089   1.487       .  S
O318       Cr327   1.965   1_554  S
O318        C326   1.256       .  A
O319       Cr327   2.034       .  S
O319        C320   1.272   1_556  A
C320        O321   1.261   1_554  A
C320       C1101   1.497       .  S
O321       Cr328   1.974       .  S
O322       Cr328   2.022       .  S
O322        C323   1.265       .  A
C323        O324   1.248       .  A
C323       C1713   1.475       .  S
O324       Cr329   1.941       .  S
O325       Cr329   2.018   1_554  S
O325        C326   1.268       .  A
C326       C1161   1.490       .  S
Cr327       O330   1.763       .  S
Cr328       O330   1.770       .  S
Cr329       O330   1.752       .  S
O331       Cr349   2.039       .  S
O331        C339   1.276       .  A
O332       Cr349   1.972       .  S
O332        C333   1.264       .  A
C333        O334   1.272       .  A
C333       C1308   1.492       .  S
O334       Cr350   2.017       .  S
O335       Cr350   1.981       .  S
O335        C336   1.264       .  A
C336        O337   1.272       .  A
C336       C1080   1.506       .  S
O337       Cr351   2.034       .  S
O338       Cr351   1.959       .  S
O338        C339   1.259       .  A
C339       C1092   1.490       .  S
O340       Cr349   1.979   1_554  S
O340        C348   1.260       .  A
O341       Cr349   2.032       .  S
O341        C342   1.270   1_556  A
C342        O343   1.258   1_554  A
C342       C1053   1.489       .  S
O343       Cr350   1.970       .  S
O344       Cr350   2.014       .  S
O344        C345   1.265       .  A
C345        O346   1.247       .  A
C345       C1068   1.470       .  S
O346       Cr351   1.941       .  S
O347       Cr351   2.010   1_554  S
O347        C348   1.263       .  A
C348       C1149   1.491       .  S
Cr349       O352   1.765       .  S
Cr350       O352   1.767       .  S
Cr351       O352   1.760       .  S
O353       Cr371   1.972       .  S
O353        C361   1.258       .  A
O354       Cr371   2.027       .  S
O354        C355   1.270       .  A
C355        O356   1.259       .  A
C355       C1437   1.490       .  S
O356       Cr372   1.976       .  S
O357       Cr372   2.017       .  S
O357        C358   1.268       .  A
C358        O359   1.244       .  A
C358       C1008   1.458       .  S
O359       Cr373   1.931       .  S
O360       Cr373   2.025       .  S
O360        C361   1.270       .  A
C361       C1029   1.490       .  S
O362       Cr371   2.038       .  S
O362        C370   1.274       .  A
O363       Cr371   1.958       .  S
O363        C364   1.262       .  A
C364        O365   1.272       .  A
C364        C996   1.477       .  S
O365       Cr372   2.017       .  S
O366       Cr372   1.987       .  S
O366        C367   1.264       .  A
C367        O368   1.272       .  A
C367       C1017   1.511       .  S
O368       Cr373   2.036       .  S
O369       Cr373   1.949       .  S
O369        C370   1.253       .  A
C370       C1041   1.479       .  S
Cr371       O374   1.764       .  S
Cr372       O374   1.766       .  S
Cr373       O374   1.752       .  S
O375       Cr393   1.977       .  S
O375        C383   1.259       .  A
O376       Cr393   2.029   1_545  S
O376        C377   1.271       .  A
C377        O378   1.258   1_545  A
C377       C1236   1.487       .  S
O378       Cr394   1.964       .  S
O379       Cr394   2.019       .  S
O379        C380   1.266       .  A
C380        O381   1.247       .  A
C380       C1116   1.468       .  S
O381       Cr395   1.939       .  S
O382       Cr395   2.011       .  S
O382        C383   1.264       .  A
C383        C981   1.490       .  S
O384       Cr393   2.038       .  S
O384        C392   1.275       .  A
O385       Cr393   1.960   1_545  S
O385        C386   1.260       .  A
C386        O387   1.271       .  A
C386        C969   1.478       .  S
O387       Cr394   2.016   1_545  S
O388       Cr394   1.983       .  S
O388        C389   1.263       .  A
C389        O390   1.271       .  A
C389       C1056   1.501       .  S
O390       Cr395   2.023       .  S
O391       Cr395   1.948       .  S
O391        C392   1.255       .  A
C392       C1044   1.477       .  S
Cr393       O396   1.761       .  S
Cr394       O396   1.768       .  S
Cr395       O396   1.751       .  S
O397       Cr415   1.967       .  S
O397        C405   1.256       .  A
O398       Cr415   2.047   1_545  S
O398        C399   1.276       .  A
C399        O400   1.260   1_545  A
C399        C948   1.502       .  S
O400       Cr416   1.974       .  S
O401       Cr416   2.027       .  S
O401        C402   1.268       .  A
C402        O403   1.247       .  A
C402       C1452   1.464       .  S
O403       Cr417   1.938       .  S
O404       Cr417   2.025       .  S
O404        C405   1.269       .  A
C405       C1032   1.494       .  S
O406       Cr415   2.058       .  S
O406        C414   1.278       .  A
O407       Cr415   1.968   1_545  S
O407        C408   1.262       .  A
C408        O409   1.271       .  A
C408        C933   1.488       .  S
O409       Cr416   2.018   1_545  S
O410       Cr416   1.983       .  S
O410        C411   1.264       .  A
C411        O412   1.271       .  A
C411       C1560   1.501       .  S
O412       Cr417   2.028       .  S
O413       Cr417   1.946       .  S
O413        C414   1.252       .  A
C414        C957   1.487       .  S
Cr415       O418   1.764       .  S
Cr416       O418   1.766       .  S
Cr417       O418   1.753       .  S
O419       Cr437   1.981       .  S
O419        C427   1.260       .  A
O420       Cr437   2.031       .  S
O420        C421   1.271       .  A
C421        O422   1.262       .  A
C421       C1125   1.495       .  S
O422       Cr438   1.978       .  S
O423       Cr438   2.026       .  S
O423        C424   1.267       .  A
C424        O425   1.246       .  A
C424       C1245   1.473       .  S
O425       Cr439   1.938       .  S
O426       Cr439   2.010       .  S
O426        C427   1.263       .  A
C427        C984   1.491       .  S
O428       Cr437   2.046       .  S
O428        C436   1.277       .  A
O429       Cr437   1.973       .  S
O429        C430   1.265       .  A
C430        O431   1.272       .  A
C430        C921   1.492       .  S
O431       Cr438   2.020       .  S
O432       Cr438   1.988       .  S
O432        C433   1.266       .  A
C433        O434   1.268       .  A
C433       C1356   1.497       .  S
O434       Cr439   2.019       .  S
O435       Cr439   1.948       .  S
O435        C436   1.254       .  A
C436        C960   1.485       .  S
Cr437       O440   1.763       .  S
Cr438       O440   1.768       .  S
Cr439       O440   1.756       .  S
O441       Cr459   1.973       .  S
O441        C449   1.259       .  A
O442       Cr459   2.017       .  S
O442        C443   1.268       .  A
C443        O444   1.260       .  A
C443       C1281   1.499       .  S
O444       Cr460   1.985       .  S
O445       Cr460   2.024       .  S
O445        C446   1.267       .  A
C446        O447   1.246       .  A
C446       C1197   1.471       .  S
O447       Cr461   1.919       .  S
O448       Cr461   2.025       .  S
O448        C449   1.269       .  A
C449        C897   1.474       .  S
O450       Cr459   2.033       .  S
O450        C458   1.271       .  A
O451       Cr459   1.963       .  S
O451        C452   1.264       .  A
C452        O453   1.273       .  A
C452       C1665   1.477       .  S
O453       Cr460   2.019       .  S
O454       Cr460   1.980       .  S
O454        C455   1.262       .  A
C455        O456   1.270       .  A
C455       C1104   1.503       .  S
O456       Cr461   2.022       .  S
O457       Cr461   1.969       .  S
O457        C458   1.254       .  A
C458        C909   1.478       .  S
Cr459       O462   1.764       .  S
Cr460       O462   1.770       .  S
Cr461       O462   1.756       .  S
O463       Cr481   1.974       .  S
O463        C471   1.260       .  A
O464       Cr481   2.030       .  S
O464        C465   1.269       .  A
C465        O466   1.260       .  A
C465       C1485   1.494       .  S
O466       Cr482   1.984       .  S
O467       Cr482   2.030       .  S
O467        C468   1.269       .  A
C468        O469   1.246       .  A
C468        C873   1.475       .  S
O469       Cr483   1.936       .  S
O470       Cr483   2.020       .  S
O470        C471   1.268       .  A
C471        C861   1.492       .  S
O472       Cr481   2.030       .  S
O472        C480   1.273       .  A
O473       Cr481   1.960       .  S
O473        C474   1.261       .  A
C474        O475   1.276       .  A
C474       C1620   1.489       .  S
O475       Cr482   2.033       .  S
O476       Cr482   1.985       .  S
O476        C477   1.265       .  A
C477        O478   1.271       .  A
C477        C885   1.507       .  S
O478       Cr483   2.029       .  S
O479       Cr483   1.968       .  S
O479        C480   1.258       .  A
C480        C912   1.487       .  S
Cr481       O484   1.761       .  S
Cr482       O484   1.770       .  S
Cr483       O484   1.759       .  S
O485       Cr503   1.955       .  S
O485        C493   1.255       .  A
O486       Cr503   2.038       .  S
O486        C487   1.273       .  A
C487        O488   1.262       .  A
C487       C1185   1.505       .  S
O488       Cr504   1.976       .  S
O489       Cr504   2.023       .  S
O489        C490   1.267       .  A
C490        O491   1.248       .  A
C490       C1296   1.470       .  S
O491       Cr505   1.948       .  S
O492       Cr505   2.029       .  S
O492        C493   1.267       .  A
C493        C900   1.471       .  S
O494       Cr503   2.045       .  S
O494        C502   1.276       .  A
O495       Cr503   1.962       .  S
O495        C496   1.261       .  A
C496        O497   1.271       .  A
C496       C1785   1.478       .  S
O497       Cr504   2.017       .  S
O498       Cr504   1.979       .  S
O498        C499   1.263       .  A
C499        O500   1.275       .  A
C499       C1404   1.505       .  S
O500       Cr505   2.037       .  S
O501       Cr505   1.956       .  S
O501        C502   1.255       .  A
C502        C849   1.492       .  S
Cr503       O506   1.766       .  S
Cr504       O506   1.770       .  S
Cr505       O506   1.761       .  S
O507       Cr525   1.973       .  S
O507        C515   1.257       .  A
O508       Cr525   2.042       .  S
O508        C509   1.272       .  A
C509        O510   1.259       .  A
C509        C837   1.492       .  S
O510       Cr526   1.981       .  S
O511       Cr526   2.016       .  S
O511        C512   1.266       .  A
C512        O513   1.242       .  A
C512       C1500   1.457       .  S
O513       Cr527   1.935       .  S
O514       Cr527   2.017       .  S
O514        C515   1.266       .  A
C515        C864   1.487       .  S
O516       Cr525   2.054       .  S
O516        C524   1.278       .  A
O517       Cr525   1.961       .  S
O517        C518   1.260       .  A
C518        O519   1.271       .  A
C518       C1728   1.463       .  S
O519       Cr526   2.020       .  S
O520       Cr526   1.992       .  S
O520        C521   1.267       .  A
C521        O522   1.273       .  A
C521       C1605   1.512       .  S
O522       Cr527   2.037       .  S
O523       Cr527   1.952       .  S
O523        C524   1.255       .  A
C524        C852   1.488       .  S
Cr525       O528   1.765       .  S
Cr526       O528   1.772       .  S
Cr527       O528   1.756       .  S
O529       Cr547   2.054       .  S
O529        C537   1.279       .  A
O530       Cr547   1.963   1_565  S
O530        C531   1.261       .  A
C531        O532   1.275       .  A
C531       C1464   1.492       .  S
O532       Cr548   2.030   1_565  S
O533       Cr548   1.999       .  S
O533        C534   1.268       .  A
C534        O535   1.271       .  A
C534        C840   1.501       .  S
O535       Cr549   2.022       .  S
O536       Cr549   1.949       .  S
O536        C537   1.255       .  A
C537        C825   1.487       .  S
O538       Cr547   1.965       .  S
O538        C546   1.254       .  A
O539       Cr547   2.042   1_565  S
O539        C540   1.273       .  A
C540        O541   1.260   1_565  A
C540       C1632   1.495       .  S
O541       Cr548   1.981       .  S
O542       Cr548   2.029   1_655  S
O542        C543   1.268   1_655  A
C543        O544   1.246       .  A
C543        C876   1.475   1_455  S
O544       Cr549   1.940       .  S
O545       Cr549   2.011       .  S
O545        C546   1.264       .  A
C546        C816   1.488       .  S
Cr547       O550   1.763       .  S
Cr548       O550   1.770       .  S
Cr549       O550   1.755       .  S
O551       Cr569   2.044       .  S
O551        C559   1.275       .  A
O552       Cr569   1.957       .  S
O552        C553   1.260       .  A
C553        O554   1.274       .  A
C553       C1416   1.484       .  S
O554       Cr570   2.021       .  S
O555       Cr570   1.978       .  S
O555        C556   1.262       .  A
C556        O557   1.275       .  A
C556        C945   1.511       .  S
O557       Cr571   2.046       .  S
O558       Cr571   1.957       .  S
O558        C559   1.256       .  A
C559        C828   1.490       .  S
O560       Cr569   1.961       .  S
O560        C568   1.257       .  A
O561       Cr569   2.042       .  S
O561        C562   1.273       .  A
C562        O563   1.259       .  A
C562        C792   1.500       .  S
O563       Cr570   1.976       .  S
O564       Cr570   2.022       .  S
O564        C565   1.268       .  A
C565        O566   1.242       .  A
C565       C1005   1.461       .  S
O566       Cr571   1.932       .  S
O567       Cr571   2.024       .  S
O567        C568   1.270       .  A
C568        C804   1.488       .  S
Cr569       O572   1.762       .  S
Cr570       O572   1.764       .  S
Cr571       O572   1.757       .  S
O573       Cr591   2.047       .  S
O573        C581   1.276       .  A
O574       Cr591   1.972       .  S
O574        C575   1.264       .  A
C575        O576   1.271       .  A
C575       C1572   1.482       .  S
O576       Cr592   2.019       .  S
O577       Cr592   1.981       .  S
O577        C578   1.264       .  A
C578        O579   1.271       .  A
C578       C1740   1.499       .  S
O579       Cr593   2.021       .  S
O580       Cr593   1.955       .  S
O580        C581   1.256       .  A
C581        C780   1.491       .  S
O582       Cr591   1.970   1_554  S
O582        C590   1.258       .  A
O583       Cr591   2.036       .  S
O583        C584   1.273   1_556  A
C584        O585   1.262   1_554  A
C584        C888   1.503       .  S
O585       Cr592   1.980       .  S
O586       Cr592   2.023       .  S
O586        C587   1.265       .  A
C587        O588   1.247       .  A
C587       C1641   1.475   1_455  S
O588       Cr593   1.942       .  S
O589       Cr593   2.006   1_554  S
O589        C590   1.265       .  A
C590        C813   1.482       .  S
Cr591       O594   1.762       .  S
Cr592       O594   1.770       .  S
Cr593       O594   1.757       .  S
O595       Cr613   2.052       .  S
O595        C603   1.277       .  A
O596       Cr613   1.963   1_565  S
O596        C597   1.261       .  A
C597        O598   1.272       .  A
C597       C1512   1.480       .  S
O598       Cr614   2.015   1_565  S
O599       Cr614   1.987       .  S
O599        C600   1.265       .  A
C600        O601   1.271       .  A
C600        C768   1.505       .  S
O601       Cr615   2.032       .  S
O602       Cr615   1.955       .  S
O602        C603   1.256       .  A
C603        C777   1.493       .  S
O604       Cr613   1.969   1_554  S
O604        C612   1.257       .  A
O605       Cr613   2.043   1_565  S
O605        C606   1.273   1_556  A
C606        O607   1.262   1_564  A
C606       C1020   1.506       .  S
O607       Cr614   1.983       .  S
O608       Cr614   2.020       .  S
O608        C609   1.266       .  A
C609        O610   1.248       .  A
C609        C756   1.471       .  S
O610       Cr615   1.938       .  S
O611       Cr615   2.016   1_554  S
O611        C612   1.268       .  A
C612        C801   1.487       .  S
Cr613       O616   1.765       .  S
Cr614       O616   1.769       .  S
Cr615       O616   1.756       .  S
O617       Cr635   1.975       .  S
O617        C625   1.258       .  A
O618       Cr635   2.042       .  S
O618        C619   1.274       .  A
C619        O620   1.261       .  A
C619        C765   1.505       .  S
O620       Cr636   1.977       .  S
O621       Cr636   2.029       .  S
O621        C622   1.269       .  A
C622        O623   1.244       .  A
C622       C1536   1.459       .  S
O623       Cr637   1.940       .  S
O624       Cr637   2.009       .  S
O624        C625   1.263       .  A
C625        C729   1.485       .  S
O626       Cr635   2.048       .  S
O626        C634   1.278       .  A
O627       Cr635   1.960       .  S
O627        C628   1.259       .  A
C628        O629   1.273       .  A
C628        C936   1.488       .  S
O629       Cr636   2.023       .  S
O630       Cr636   1.987       .  S
O630        C631   1.265       .  A
C631        O632   1.271       .  A
C631       C1425   1.502       .  S
O632       Cr637   2.029       .  S
O633       Cr637   1.948       .  S
O633        C634   1.254       .  A
C634        C741   1.479       .  S
Cr635       O638   1.760       .  S
Cr636       O638   1.769       .  S
Cr637       O638   1.754       .  S
O639       Cr657   2.008       .  S
O639        C647   1.265       .  A
O640       Cr657   2.016       .  S
O640        C641   1.266       .  A
C641        O642   1.256       .  A
C641       C1077   1.484       .  S
O642       Cr658   1.980       .  S
O643       Cr658   2.018       .  S
O643        C644   1.263       .  A
C644        O645   1.245       .  A
C644       C1320   1.458       .  S
O645       Cr659   1.944       .  S
O646       Cr659   1.981       .  S
O646        C647   1.267       .  A
C647        C717   1.477       .  S
O648       Cr657   2.020       .  S
O648        C656   1.267       .  A
O649       Cr657   1.998       .  S
O649        C650   1.267       .  A
C650        O651   1.265       .  A
C650        C924   1.488       .  S
O651       Cr658   1.982       .  S
O652       Cr658   1.987       .  S
O652        C653   1.265       .  A
C653        O654   1.271       .  A
C653       C1224   1.480       .  S
O654       Cr659   1.994       .  S
O655       Cr659   1.953       .  S
O655        C656   1.249       .  A
C656        C744   1.488       .  S
Cr657       O660   1.781       .  S
Cr658       O660   1.778       .  S
Cr659       O660   1.773       .  S
O661       Cr679   1.964   1_556  S
O661        C669   1.258       .  A
O662       Cr679   2.034   1_556  S
O662        C663   1.272       .  A
C663        O664   1.262       .  A
C663       C1545   1.504       .  S
O664       Cr680   1.984   1_556  S
O665       Cr680   2.018       .  S
O665        C666   1.266       .  A
C666        O667   1.247   1_554  A
C666        C753   1.469   1_554  S
O667       Cr681   1.937   1_556  S
O668       Cr681   2.017   1_556  S
O668        C669   1.266       .  A
C669        C732   1.488       .  S
O670       Cr679   2.042       .  S
O670        C678   1.274       .  A
O671       Cr679   1.958       .  S
O671        C672   1.261       .  A
C672        O673   1.271       .  A
C672        C993   1.474       .  S
O673       Cr680   2.015       .  S
O674       Cr680   1.990       .  S
O674        C675   1.265       .  A
C675        O676   1.272       .  A
C675        C789   1.507       .  S
O676       Cr681   2.027       .  S
O677       Cr681   1.954       .  S
O677        C678   1.255       .  A
C678        C705   1.481       .  S
Cr679       O682   1.764       .  S
Cr680       O682   1.770       .  S
Cr681       O682   1.755       .  S
O683       Cr701   1.960   1_556  S
O683        C691   1.255       .  A
O684       Cr701   2.021   1_556  S
O684        C685   1.270       .  A
C685        O686   1.261       .  A
C685       C1332   1.494       .  S
O686       Cr702   1.969   1_556  S
O687       Cr702   2.012       .  S
O687        C688   1.263       .  A
C688        O689   1.248   1_554  A
C688       C1065   1.471   1_554  S
O689       Cr703   1.940   1_556  S
O690       Cr703   2.026   1_556  S
O690        C691   1.267       .  A
C691        C720   1.474       .  S
O692       Cr701   2.039       .  S
O692        C700   1.274       .  A
O693       Cr701   1.970       .  S
O693        C694   1.264       .  A
C694        O695   1.267       .  A
C694        C972   1.477       .  S
O695       Cr702   2.002       .  S
O696       Cr702   1.973       .  S
O696        C697   1.263       .  A
C697        O698   1.271       .  A
C697       C1137   1.495       .  S
O698       Cr703   2.028       .  S
O699       Cr703   1.952       .  S
O699        C700   1.254       .  A
C700        C708   1.489       .  S
Cr701       O704   1.762       .  S
Cr702       O704   1.768       .  S
Cr703       O704   1.758       .  S
C705        C706   1.409       .  A
C705        C710   1.406       .  A
C706        C707   1.402       .  A
C706        H711   1.085       .  S
C707        C708   1.410       .  A
C707        C714   1.444       .  S
C708        C709   1.413       .  A
C709        C710   1.402       .  A
C709        H712   1.084       .  S
C710        C713   1.443       .  S
C713        N715   1.157       .  T
C714        N716   1.157       .  T
C717        C718   1.393       .  A
C717        C722   1.416       .  A
C718        C719   1.387       .  A
C718        H723   1.084       .  S
C719        C720   1.410       .  A
C719        C726   1.443       .  S
C720        C721   1.406       .  A
C721        C722   1.411       .  A
C721        H724   1.085       .  S
C722        C725   1.444       .  S
C725        N727   1.158       .  T
C726        N728   1.156       .  T
C729        C730   1.406       .  A
C729        C734   1.415       .  A
C730        C731   1.401       .  A
C730        H735   1.085       .  S
C731        C732   1.416       .  A
C731        C738   1.444       .  S
C732        C733   1.406       .  A
C733        C734   1.397       .  A
C733        H736   1.085       .  S
C734        C737   1.445       .  S
C737        N739   1.157       .  T
C738        N740   1.157       .  T
C741        C742   1.395       .  A
C741        C746   1.420       .  A
C742        C743   1.400       .  A
C742        H747   1.085       .  S
C743        C744   1.425       .  A
C743        C750   1.446       .  S
C744        C745   1.399       .  A
C745        C746   1.403       .  A
C745        H748   1.085       .  S
C746        C749   1.444       .  S
C749        N751   1.157       .  T
C750        N752   1.158       .  T
C753        C754   1.407       .  A
C753        C758   1.410   1_556  A
C754        C755   1.392       .  A
C754        H759   1.086       .  S
C755        C756   1.411       .  A
C755        C762   1.445       .  S
C756        C757   1.408   1_556  A
C757        C758   1.392       .  A
C757        H760   1.085       .  S
C758        C761   1.445       .  S
C761        N763   1.157       .  T
C762        N764   1.157       .  T
C765        C766   1.410       .  A
C765        C770   1.416       .  A
C766        C767   1.407       .  A
C766        H771   1.084       .  S
C767        C768   1.417       .  A
C767        C774   1.444       .  S
C768        C769   1.410       .  A
C769        C770   1.409       .  A
C769        H772   1.084       .  S
C770        C773   1.443       .  S
C773        N775   1.157       .  T
C774        N776   1.157       .  T
C777        C778   1.413       .  A
C777        C782   1.410       .  A
C778        C779   1.404       .  A
C778        H783   1.085       .  S
C779        C780   1.407       .  A
C779        C786   1.443       .  S
C780        C781   1.413       .  A
C781        C782   1.406       .  A
C781        H784   1.085       .  S
C782        C785   1.444       .  S
C785        N787   1.157   1_545  T
C786        N788   1.157       .  T
C789        C790   1.409       .  A
C789        C794   1.420       .  A
C790        C791   1.404       .  A
C790        H795   1.084       .  S
C791        C792   1.417       .  A
C791        C798   1.445       .  S
C792        C793   1.407       .  A
C793        C794   1.411       .  A
C793        H796   1.085       .  S
C794        C797   1.443       .  S
C797        N799   1.157       .  T
C798        N800   1.157       .  T
C801        C802   1.404       .  A
C801        C806   1.417       .  A
C802        C803   1.398       .  A
C802        H807   1.085       .  S
C803        C804   1.417       .  A
C803        C810   1.445       .  S
C804        C805   1.405       .  A
C805        C806   1.402       .  A
C805        H808   1.084       .  S
C806        C809   1.445       .  S
C809        N811   1.157   1_545  T
C810        N812   1.157       .  T
C813        C814   1.403       .  A
C813        C818   1.414       .  A
C814        C815   1.396       .  A
C814        H819   1.085       .  S
C815        C816   1.418       .  A
C815        C822   1.445       .  S
C816        C817   1.408       .  A
C817        C818   1.401       .  A
C817        H820   1.084       .  S
C818        C821   1.445       .  S
C821        N823   1.157       .  T
C822        N824   1.157   1_545  T
C825        C826   1.410       .  A
C825        C830   1.406       .  A
C826        C827   1.403       .  A
C826        H831   1.085       .  S
C827        C828   1.410       .  A
C827        C834   1.444       .  S
C828        C829   1.413       .  A
C829        C830   1.404       .  A
C829        H832   1.084       .  S
C830        C833   1.442       .  S
C833        N835   1.157   1_545  T
C834        N836   1.157       .  T
C837        C838   1.408       .  A
C837        C842   1.409       .  A
C838        C839   1.411   1_655  A
C838        H843   1.082       .  S
C839        C840   1.415       .  A
C839        C846   1.443       .  S
C840        C841   1.411       .  A
C841        C842   1.403   1_455  A
C841        H844   1.084       .  S
C842        C845   1.445       .  S
C845        N847   1.157       .  T
C846        N848   1.157       .  T
C849        C850   1.413       .  A
C849        C854   1.409       .  A
C850        C851   1.405       .  A
C850        H855   1.084       .  S
C851        C852   1.407       .  A
C851        C858   1.443       .  S
C852        C853   1.411       .  A
C853        C854   1.403       .  A
C853        H856   1.085       .  S
C854        C857   1.444       .  S
C857        N859   1.157       .  T
C858        N860   1.157       .  T
C861        C862   1.408       .  A
C861        C866   1.417       .  A
C862        C863   1.403       .  A
C862        H867   1.084       .  S
C863        C864   1.415       .  A
C863        C870   1.445       .  S
C864        C865   1.403       .  A
C865        C866   1.399       .  A
C865        H868   1.084       .  S
C866        C869   1.444       .  S
C869        N871   1.157       .  T
C870        N872   1.157       .  T
C873        C874   1.411       .  A
C873        C878   1.410   1_655  A
C874        C875   1.394       .  A
C874        H879   1.085       .  S
C875        C876   1.409       .  A
C875        C882   1.445       .  S
C876        C877   1.410   1_655  A
C877        C878   1.393       .  A
C877        H880   1.085       .  S
C878        C881   1.445       .  S
C881        N883   1.157       .  T
C882        N884   1.157       .  T
C885        C886   1.411       .  A
C885        C890   1.420       .  A
C886        C887   1.409   1_655  A
C886        H891   1.084       .  S
C887        C888   1.416       .  A
C887        C894   1.444       .  S
C888        C889   1.408   1_455  A
C889        C890   1.406       .  A
C889        H892   1.085       .  S
C890        C893   1.444       .  S
C893        N895   1.157       .  T
C894        N896   1.157       .  T
C897        C898   1.408       .  A
C897        C902   1.409       .  A
C898        C899   1.411       .  A
C898        H903   1.084       .  S
C899        C900   1.411       .  A
C899        C906   1.443       .  S
C900        C901   1.397       .  A
C901        C902   1.389       .  A
C901        H904   1.087       .  S
C902        C905   1.442       .  S
C905        N907   1.157       .  T
C906        N908   1.158       .  T
C909        C910   1.400       .  A
C909        C914   1.409       .  A
C910        C911   1.394       .  A
C910        H915   1.083       .  S
C911        C912   1.416       .  A
C911        C918   1.445       .  S
C912        C913   1.411       .  A
C913        C914   1.410       .  A
C913        H916   1.084       .  S
C914        C917   1.442       .  S
C917        N919   1.157       .  T
C918        N920   1.157       .  T
C921        C922   1.406       .  A
C921        C926   1.419       .  A
C922        C923   1.401       .  A
C922        H927   1.085       .  S
C923        C924   1.415       .  A
C923        C930   1.444       .  S
C924        C925   1.405       .  A
C925        C926   1.402       .  A
C925        H928   1.085       .  S
C926        C929   1.445       .  S
C929        N931   1.158       .  T
C930        N932   1.157       .  T
C933        C934   1.405       .  A
C933        C938   1.416       .  A
C934        C935   1.401       .  A
C934        H939   1.085       .  S
C935        C936   1.420       .  A
C935        C942   1.446       .  S
C936        C937   1.404       .  A
C937        C938   1.399       .  A
C937        H940   1.085       .  S
C938        C941   1.444       .  S
C941        N943   1.157       .  T
C942        N944   1.158       .  T
C945        C946   1.409       .  A
C945        C950   1.423       .  A
C946        C947   1.409       .  A
C946        H951   1.084       .  S
C947        C948   1.419       .  A
C947        C954   1.445   1_545  S
C948        C949   1.404       .  A
C949        C950   1.409       .  A
C949        H952   1.085       .  S
C950        C953   1.443       .  S
C953        N955   1.157       .  T
C954        N956   1.158       .  T
C957        C958   1.413       .  A
C957        C962   1.406       .  A
C958        C959   1.401       .  A
C958        H963   1.085       .  S
C959        C960   1.406       .  A
C959        C966   1.444       .  S
C960        C961   1.413       .  A
C961        C962   1.404       .  A
C961        H964   1.085       .  S
C962        C965   1.443       .  S
C965        N967   1.157   1_565  T
C966        N968   1.157       .  T
C969        C970   1.402       .  A
C969        C974   1.416       .  A
C970        C971   1.398       .  A
C970        H975   1.085       .  S
C971        C972   1.418       .  A
C971        C978   1.446       .  S
C972        C973   1.400       .  A
C973        C974   1.396       .  A
C973        H976   1.085       .  S
C974        C977   1.444       .  S
C977        N979   1.157       .  T
C978        N980   1.158       .  T
C981        C982   1.406       .  A
C981        C986   1.417       .  A
C982        C983   1.402       .  A
C982        H987   1.085       .  S
C983        C984   1.418       .  A
C983        C990   1.445       .  S
C984        C985   1.406       .  A
C985        C986   1.401       .  A
C985        H988   1.085       .  S
C986        C989   1.445       .  S
C989        N991   1.157       .  T
C990        N992   1.158       .  T
C993        C994   1.405       .  A
C993        C998   1.411       .  A
C994        C995   1.398       .  A
C994        H999   1.085       .  S
C995        C996   1.411       .  A
C995       C1002   1.444       .  S
C996        C997   1.406       .  A
C997        C998   1.395       .  A
C997       H1000   1.085       .  S
C998       C1001   1.445       .  S
C1001      N1003   1.157       .  T
C1002      N1004   1.157       .  T
C1005      C1006   1.394       .  A
C1005      C1010   1.422       .  A
C1006      C1007   1.389   1_545  A
C1006      H1011   1.085       .  S
C1007      C1008   1.420       .  A
C1007      C1014   1.446       .  S
C1008      C1009   1.392       .  A
C1009      C1010   1.388   1_565  A
C1009      H1012   1.086       .  S
C1010      C1013   1.446       .  S
C1013      N1015   1.157   1_545  T
C1014      N1016   1.157       .  T
C1017      C1018   1.412       .  A
C1017      C1022   1.421       .  A
C1018      C1019   1.411       .  A
C1018      H1023   1.084       .  S
C1019      C1020   1.416       .  A
C1019      C1026   1.444       .  S
C1020      C1021   1.408       .  A
C1021      C1022   1.408       .  A
C1021      H1024   1.085   1_565  S
C1022      C1025   1.444       .  S
C1025      N1027   1.157   1_565  T
C1026      N1028   1.157   1_554  T
C1029      C1030   1.404       .  A
C1029      C1034   1.416       .  A
C1030      C1031   1.402       .  A
C1030      H1035   1.085       .  S
C1031      C1032   1.420       .  A
C1031      C1038   1.445       .  S
C1032      C1033   1.406       .  A
C1033      C1034   1.404       .  A
C1033      H1036   1.085       .  S
C1034      C1037   1.444       .  S
C1037      N1039   1.157       .  T
C1038      N1040   1.157   1_565  T
C1041      C1042   1.411       .  A
C1041      C1046   1.407       .  A
C1042      C1043   1.398       .  A
C1042      H1047   1.085       .  S
C1043      C1044   1.405       .  A
C1043      C1050   1.443       .  S
C1044      C1045   1.410       .  A
C1045      C1046   1.400       .  A
C1045      H1048   1.085       .  S
C1046      C1049   1.444       .  S
C1049      N1051   1.157       .  T
C1050      N1052   1.157   1_565  T
C1053      C1054   1.405       .  A
C1053      C1058   1.413       .  A
C1054      C1055   1.408       .  A
C1054      H1059   1.085       .  S
C1055      C1056   1.420       .  A
C1055      C1062   1.444       .  S
C1056      C1057   1.410       .  A
C1057      C1058   1.401       .  A
C1057      H1060   1.084       .  S
C1058      C1061   1.446       .  S
C1061      N1063   1.157       .  T
C1062      N1064   1.157       .  T
C1065      C1066   1.407       .  A
C1065      C1070   1.412   1_556  A
C1066      C1067   1.391       .  A
C1066      H1071   1.085       .  S
C1067      C1068   1.411       .  A
C1067      C1074   1.445       .  S
C1068      C1069   1.408   1_556  A
C1069      C1070   1.392       .  A
C1069      H1072   1.085       .  S
C1070      C1073   1.446       .  S
C1073      N1075   1.157       .  T
C1074      N1076   1.157       .  T
C1077      C1078   1.402       .  A
C1077      C1082   1.409       .  A
C1078      C1079   1.407       .  A
C1078      H1083   1.085       .  S
C1079      C1080   1.420       .  A
C1079      C1086   1.443       .  S
C1080      C1081   1.413       .  A
C1081      C1082   1.407       .  A
C1081      H1084   1.084       .  S
C1082      C1085   1.443       .  S
C1085      N1087   1.157       .  T
C1086      N1088   1.157       .  T
C1089      C1090   1.409       .  A
C1089      C1094   1.408       .  A
C1090      C1091   1.400       .  A
C1090      H1095   1.085       .  S
C1091      C1092   1.410       .  A
C1091      C1098   1.444       .  S
C1092      C1093   1.413       .  A
C1093      C1094   1.406       .  A
C1093      H1096   1.084       .  S
C1094      C1097   1.443       .  S
C1097      N1099   1.157       .  T
C1098      N1100   1.157       .  T
C1101      C1102   1.406       .  A
C1101      C1106   1.416       .  A
C1102      C1103   1.407       .  A
C1102      H1107   1.085       .  S
C1103      C1104   1.421       .  A
C1103      C1110   1.444       .  S
C1104      C1105   1.409       .  A
C1105      C1106   1.403       .  A
C1105      H1108   1.085       .  S
C1106      C1109   1.445       .  S
C1109      N1111   1.157       .  T
C1110      N1112   1.157       .  T
C1113      C1114   1.406       .  A
C1113      C1118   1.411       .  A
C1114      C1115   1.391       .  A
C1114      H1119   1.085       .  S
C1115      C1116   1.411       .  A
C1115      C1122   1.445       .  S
C1116      C1117   1.407       .  A
C1117      C1118   1.391       .  A
C1117      H1120   1.085       .  S
C1118      C1121   1.445       .  S
C1121      N1123   1.157       .  T
C1122      N1124   1.157       .  T
C1125      C1126   1.404       .  A
C1125      C1130   1.415       .  A
C1126      C1127   1.402       .  A
C1126      H1131   1.085       .  S
C1127      C1128   1.422       .  A
C1127      C1134   1.445       .  S
C1128      C1129   1.409       .  A
C1129      C1130   1.407       .  A
C1129      H1132   1.084       .  S
C1130      C1133   1.444       .  S
C1133      N1135   1.157       .  T
C1134      N1136   1.158       .  T
C1137      C1138   1.409       .  A
C1137      C1142   1.416       .  A
C1138      C1139   1.403       .  A
C1138      H1143   1.084       .  S
C1139      C1140   1.414       .  A
C1139      C1146   1.444       .  S
C1140      C1141   1.408       .  A
C1141      C1142   1.403       .  A
C1141      H1144   1.084       .  S
C1142      C1145   1.444       .  S
C1145      N1147   1.157       .  T
C1146      N1148   1.157       .  T
C1149      C1150   1.406       .  A
C1149      C1154   1.418       .  A
C1150      C1151   1.401       .  A
C1150      H1155   1.085       .  S
C1151      C1152   1.416       .  A
C1151      C1158   1.445       .  S
C1152      C1153   1.405       .  A
C1153      C1154   1.401       .  A
C1153      H1156   1.085       .  S
C1154      C1157   1.445       .  S
C1157      N1159   1.157       .  T
C1158      N1160   1.157       .  T
C1161      C1162   1.406       .  A
C1161      C1166   1.419       .  A
C1162      C1163   1.400       .  A
C1162      H1167   1.085       .  S
C1163      C1164   1.414       .  A
C1163      C1170   1.444       .  S
C1164      C1165   1.404       .  A
C1165      C1166   1.400       .  A
C1165      H1168   1.085       .  S
C1166      C1169   1.445       .  S
C1169      N1171   1.157       .  T
C1170      N1172   1.157       .  T
C1173      C1174   1.411       .  A
C1173      C1178   1.407       .  A
C1174      C1175   1.403       .  A
C1174      H1179   1.085       .  S
C1175      C1176   1.408       .  A
C1175      C1182   1.444       .  S
C1176      C1177   1.411       .  A
C1177      C1178   1.402       .  A
C1177      H1180   1.085       .  S
C1178      C1181   1.443       .  S
C1181      N1183   1.157       .  T
C1182      N1184   1.157       .  T
C1185      C1186   1.411       .  A
C1185      C1190   1.418       .  A
C1186      C1187   1.405       .  A
C1186      H1191   1.084       .  S
C1187      C1188   1.414       .  A
C1187      C1194   1.444       .  S
C1188      C1189   1.408       .  A
C1189      C1190   1.408       .  A
C1189      H1192   1.084       .  S
C1190      C1193   1.444       .  S
C1193      N1195   1.157       .  T
C1194      N1196   1.157       .  T
C1197      C1198   1.411       .  A
C1197      C1202   1.407       .  A
C1198      C1199   1.388       .  A
C1198      H1203   1.085       .  S
C1199      C1200   1.408       .  A
C1199      C1206   1.445       .  S
C1200      C1201   1.413       .  A
C1201      C1202   1.394       .  A
C1201      H1204   1.085       .  S
C1202      C1205   1.445       .  S
C1205      N1207   1.157       .  T
C1206      N1208   1.157       .  T
C1209      C1210   1.406       .  A
C1209      C1214   1.416       .  A
C1210      C1211   1.399       .  A
C1210      H1215   1.085       .  S
C1211      C1212   1.418       .  A
C1211      C1218   1.445       .  S
C1212      C1213   1.406       .  A
C1213      C1214   1.399       .  A
C1213      H1216   1.085       .  S
C1214      C1217   1.444       .  S
C1217      N1219   1.157       .  T
C1218      N1220   1.158       .  T
C1221      C1222   1.403       .  A
C1221      C1226   1.422       .  A
C1222      C1223   1.400       .  A
C1222      H1227   1.085       .  S
C1223      C1224   1.417       .  A
C1223      C1230   1.445       .  S
C1224      C1225   1.400       .  A
C1225      C1226   1.401       .  A
C1225      H1228   1.085       .  S
C1226      C1229   1.445       .  S
C1229      N1231   1.158       .  T
C1230      N1232   1.157       .  T
C1233      C1234   1.406       .  A
C1233      C1238   1.422       .  A
C1234      C1235   1.399       .  A
C1234      H1239   1.085       .  S
C1235      C1236   1.414       .  A
C1235      C1242   1.445   1_545  S
C1236      C1237   1.403       .  A
C1237      C1238   1.405       .  A
C1237      H1240   1.085       .  S
C1238      C1241   1.445       .  S
C1241      N1243   1.158       .  T
C1242      N1244   1.157       .  T
C1245      C1246   1.409       .  A
C1245      C1250   1.411       .  A
C1246      C1247   1.393   1_565  A
C1246      H1251   1.085       .  S
C1247      C1248   1.410       .  A
C1247      C1254   1.445       .  S
C1248      C1249   1.409       .  A
C1249      C1250   1.393   1_545  A
C1249      H1252   1.085       .  S
C1250      C1253   1.445       .  S
C1253      N1255   1.157       .  T
C1254      N1256   1.157       .  T
C1257      C1258   1.402       .  A
C1257      C1262   1.417       .  A
C1258      C1259   1.399       .  A
C1258      H1263   1.085       .  S
C1259      C1260   1.417       .  A
C1259      C1266   1.445       .  S
C1260      C1261   1.402       .  A
C1261      C1262   1.397       .  A
C1261      H1264   1.085       .  S
C1262      C1265   1.445       .  S
C1265      N1267   1.157       .  T
C1266      N1268   1.157       .  T
C1269      C1270   1.415       .  A
C1269      C1274   1.410       .  A
C1270      C1271   1.403       .  A
C1270      H1275   1.084       .  S
C1271      C1272   1.405       .  A
C1271      C1278   1.444       .  S
C1272      C1273   1.408       .  A
C1273      C1274   1.401       .  A
C1273      H1276   1.085       .  S
C1274      C1277   1.444       .  S
C1277      N1279   1.157       .  T
C1278      N1280   1.157   1_545  T
C1281      C1282   1.407       .  A
C1281      C1286   1.420       .  A
C1282      C1283   1.401       .  A
C1282      H1287   1.085       .  S
C1283      C1284   1.416       .  A
C1283      C1290   1.445       .  S
C1284      C1285   1.406       .  A
C1285      C1286   1.406       .  A
C1285      H1288   1.085       .  S
C1286      C1289   1.444       .  S
C1289      N1291   1.157       .  T
C1290      N1292   1.157       .  T
C1293      C1294   1.399       .  A
C1293      C1298   1.411       .  A
C1294      C1295   1.391       .  A
C1294      H1299   1.085       .  S
C1295      C1296   1.413       .  A
C1295      C1302   1.440       .  S
C1296      C1297   1.405       .  A
C1297      C1298   1.397       .  A
C1297      H1300   1.085       .  S
C1298      C1301   1.445       .  S
C1301      N1303   1.157       .  T
C1302      N1304   1.155       .  T
C1305      C1306   1.410       .  A
C1305      C1310   1.414       .  A
C1306      C1307   1.400       .  A
C1306      H1311   1.084       .  S
C1307      C1308   1.414       .  A
C1307      C1314   1.445       .  S
C1308      C1309   1.409       .  A
C1309      C1310   1.403       .  A
C1309      H1312   1.084       .  S
C1310      C1313   1.443       .  S
C1313      N1315   1.157       .  T
C1314      N1316   1.157       .  T
C1317      C1318   1.409       .  A
C1317      C1322   1.413       .  A
C1318      C1319   1.394       .  A
C1318      H1323   1.086       .  S
C1319      C1320   1.408       .  A
C1319      C1326   1.446       .  S
C1320      C1321   1.401       .  A
C1321      C1322   1.402       .  A
C1321      H1324   1.085       .  S
C1322      C1325   1.441       .  S
C1325      N1327   1.157       .  T
C1326      N1328   1.157       .  T
C1329      C1330   1.407       .  A
C1329      C1334   1.413       .  A
C1330      C1331   1.401       .  A
C1330      H1335   1.085       .  S
C1331      C1332   1.417       .  A
C1331      C1338   1.444       .  S
C1332      C1333   1.409       .  A
C1333      C1334   1.402       .  A
C1333      H1336   1.084       .  S
C1334      C1337   1.444       .  S
C1337      N1339   1.157       .  T
C1338      N1340   1.157       .  T
C1341      C1342   1.405       .  A
C1341      C1346   1.414       .  A
C1342      C1343   1.402       .  A
C1342      H1347   1.085       .  S
C1343      C1344   1.417       .  A
C1343      C1350   1.445       .  S
C1344      C1345   1.406       .  A
C1345      C1346   1.400       .  A
C1345      H1348   1.084       .  S
C1346      C1349   1.445       .  S
C1349      N1351   1.157   1_545  T
C1350      N1352   1.157       .  T
C1353      C1354   1.408       .  A
C1353      C1358   1.421       .  A
C1354      C1355   1.407       .  A
C1354      H1359   1.084   1_565  S
C1355      C1356   1.417       .  A
C1355      C1362   1.444       .  S
C1356      C1357   1.405       .  A
C1357      C1358   1.404       .  A
C1357      H1360   1.085       .  S
C1358      C1361   1.445       .  S
C1361      N1363   1.157       .  T
C1362      N1364   1.157       .  T
C1365      C1366   1.405       .  A
C1365      C1370   1.416       .  A
C1366      C1367   1.395       .  A
C1366      H1371   1.085       .  S
C1367      C1368   1.416       .  A
C1367      C1374   1.445       .  S
C1368      C1369   1.405       .  A
C1369      C1370   1.395       .  A
C1369      H1372   1.085       .  S
C1370      C1373   1.445       .  S
C1373      N1375   1.158       .  T
C1374      N1376   1.157       .  T
C1377      C1378   1.404       .  A
C1377      C1382   1.416       .  A
C1378      C1379   1.399       .  A
C1378      H1383   1.085       .  S
C1379      C1380   1.416       .  A
C1379      C1386   1.444       .  S
C1380      C1381   1.406       .  A
C1381      C1382   1.398       .  A
C1381      H1384   1.085       .  S
C1382      C1385   1.445       .  S
C1385      N1387   1.158       .  T
C1386      N1388   1.157       .  T
C1389      C1390   1.397       .  A
C1389      C1394   1.418       .  A
C1390      C1391   1.402       .  A
C1390      H1395   1.085       .  S
C1391      C1392   1.423       .  A
C1391      C1398   1.445       .  S
C1392      C1393   1.399       .  A
C1393      C1394   1.396       .  A
C1393      H1396   1.085       .  S
C1394      C1397   1.446       .  S
C1397      N1399   1.157       .  T
C1398      N1400   1.157       .  T
C1401      C1402   1.405       .  A
C1401      C1406   1.417       .  A
C1402      C1403   1.410       .  A
C1402      H1407   1.085       .  S
C1403      C1404   1.423       .  A
C1403      C1410   1.444       .  S
C1404      C1405   1.407       .  A
C1405      C1406   1.403       .  A
C1405      H1408   1.084       .  S
C1406      C1409   1.445       .  S
C1409      N1411   1.157       .  T
C1410      N1412   1.158       .  T
C1413      C1414   1.406       .  A
C1413      C1418   1.415       .  A
C1414      C1415   1.397       .  A
C1414      H1419   1.085       .  S
C1415      C1416   1.415       .  A
C1415      C1422   1.445       .  S
C1416      C1417   1.405       .  A
C1417      C1418   1.399       .  A
C1417      H1420   1.085       .  S
C1418      C1421   1.444       .  S
C1421      N1423   1.157       .  T
C1422      N1424   1.157       .  T
C1425      C1426   1.409       .  A
C1425      C1430   1.417       .  A
C1426      C1427   1.408       .  A
C1426      H1431   1.084       .  S
C1427      C1428   1.418       .  A
C1427      C1434   1.444       .  S
C1428      C1429   1.410       .  A
C1429      C1430   1.406       .  A
C1429      H1432   1.084       .  S
C1430      C1433   1.444       .  S
C1433      N1435   1.157       .  T
C1434      N1436   1.157       .  T
C1437      C1438   1.403       .  A
C1437      C1442   1.414       .  A
C1438      C1439   1.404       .  A
C1438      H1443   1.085       .  S
C1439      C1440   1.420       .  A
C1439      C1446   1.442       .  S
C1440      C1441   1.411       .  A
C1441      C1442   1.404       .  A
C1441      H1444   1.084       .  S
C1442      C1445   1.445       .  S
C1445      N1447   1.158       .  T
C1446      N1448   1.157       .  T
C1449      C1450   1.401       .  A
C1449      C1454   1.412       .  A
C1450      C1451   1.393       .  A
C1450      H1455   1.085       .  S
C1451      C1452   1.412       .  A
C1451      C1458   1.445       .  S
C1452      C1453   1.403       .  A
C1453      C1454   1.396       .  A
C1453      H1456   1.085       .  S
C1454      C1457   1.446       .  S
C1457      N1459   1.157       .  T
C1458      N1460   1.157       .  T
C1461      C1462   1.403       .  A
C1461      C1466   1.418       .  A
C1462      C1463   1.400       .  A
C1462      H1467   1.085       .  S
C1463      C1464   1.419       .  A
C1463      C1470   1.444       .  S
C1464      C1465   1.405       .  A
C1465      C1466   1.402       .  A
C1465      H1468   1.084       .  S
C1466      C1469   1.445   1_455  S
C1469      N1471   1.157       .  T
C1470      N1472   1.157       .  T
C1473      C1474   1.402       .  A
C1473      C1478   1.426       .  A
C1474      C1475   1.404       .  A
C1474      H1479   1.085       .  S
C1475      C1476   1.421       .  A
C1475      C1482   1.445       .  S
C1476      C1477   1.399       .  A
C1477      C1478   1.404       .  A
C1477      H1480   1.085       .  S
C1478      C1481   1.445       .  S
C1481      N1483   1.157       .  T
C1482      N1484   1.157       .  T
C1485      C1486   1.403   1_655  A
C1485      C1490   1.413       .  A
C1486      C1487   1.406       .  A
C1486      H1491   1.085       .  S
C1487      C1488   1.422       .  A
C1487      C1494   1.443       .  S
C1488      C1489   1.411       .  A
C1489      C1490   1.407   1_455  A
C1489      H1492   1.084       .  S
C1490      C1493   1.444       .  S
C1493      N1495   1.157       .  T
C1494      N1496   1.157       .  T
C1497      C1498   1.393   1_455  A
C1497      C1502   1.419       .  A
C1498      C1499   1.389       .  A
C1498      H1503   1.085       .  S
C1499      C1500   1.421       .  A
C1499      C1506   1.446       .  S
C1500      C1501   1.392   1_655  A
C1501      C1502   1.387       .  A
C1501      H1504   1.086       .  S
C1502      C1505   1.443       .  S
C1505      N1507   1.156       .  T
C1506      N1508   1.157       .  T
C1509      C1510   1.407       .  A
C1509      C1514   1.413       .  A
C1510      C1511   1.399       .  A
C1510      H1515   1.085       .  S
C1511      C1512   1.414       .  A
C1511      C1518   1.445       .  S
C1512      C1513   1.405       .  A
C1513      C1514   1.397       .  A
C1513      H1516   1.085       .  S
C1514      C1517   1.444       .  S
C1517      N1519   1.157       .  T
C1518      N1520   1.157       .  T
C1521      C1522   1.404       .  A
C1521      C1526   1.413       .  A
C1522      C1523   1.395       .  A
C1522      H1527   1.085       .  S
C1523      C1524   1.416       .  A
C1523      C1530   1.445       .  S
C1524      C1525   1.407       .  A
C1525      C1526   1.400       .  A
C1525      H1528   1.085       .  S
C1526      C1529   1.444       .  S
C1529      N1531   1.157       .  T
C1530      N1532   1.157       .  T
C1533      C1534   1.403       .  A
C1533      C1538   1.409       .  A
C1534      C1535   1.394       .  A
C1534      H1539   1.085       .  S
C1535      C1536   1.412       .  A
C1535      C1542   1.446       .  S
C1536      C1537   1.402       .  A
C1537      C1538   1.392       .  A
C1537      H1540   1.085       .  S
C1538      C1541   1.445       .  S
C1541      N1543   1.157       .  T
C1542      N1544   1.158       .  T
C1545      C1546   1.409       .  A
C1545      C1550   1.417       .  A
C1546      C1547   1.407       .  A
C1546      H1551   1.084       .  S
C1547      C1548   1.419       .  A
C1547      C1554   1.445       .  S
C1548      C1549   1.409       .  A
C1549      C1550   1.408       .  A
C1549      H1552   1.084       .  S
C1550      C1553   1.444       .  S
C1553      N1555   1.157       .  T
C1554      N1556   1.157       .  T
C1557      C1558   1.408       .  A
C1557      C1562   1.417       .  A
C1558      C1559   1.404       .  A
C1558      H1563   1.084       .  S
C1559      C1560   1.416       .  A
C1559      C1566   1.444       .  S
C1560      C1561   1.410       .  A
C1561      C1562   1.408       .  A
C1561      H1564   1.084       .  S
C1562      C1565   1.444       .  S
C1565      N1567   1.157       .  T
C1566      N1568   1.157       .  T
C1569      C1570   1.406       .  A
C1569      C1574   1.414       .  A
C1570      C1571   1.400       .  A
C1570      H1575   1.085       .  S
C1571      C1572   1.411       .  A
C1571      C1578   1.444       .  S
C1572      C1573   1.406       .  A
C1573      C1574   1.401       .  A
C1573      H1576   1.085       .  S
C1574      C1577   1.445       .  S
C1577      N1579   1.157   1_455  T
C1578      N1580   1.157       .  T
C1581      C1582   1.408       .  A
C1581      C1586   1.417       .  A
C1582      C1583   1.403       .  A
C1582      H1587   1.085       .  S
C1583      C1584   1.413       .  A
C1583      C1590   1.442       .  S
C1584      C1585   1.405       .  A
C1585      C1586   1.404       .  A
C1585      H1588   1.085       .  S
C1586      C1589   1.443       .  S
C1589      N1591   1.157       .  T
C1590      N1592   1.156       .  T
C1593      C1594   1.394       .  A
C1593      C1598   1.417       .  A
C1594      C1595   1.402       .  A
C1594      H1599   1.085       .  S
C1595      C1596   1.424       .  A
C1595      C1602   1.439       .  S
C1596      C1597   1.403       .  A
C1597      C1598   1.402       .  A
C1597      H1600   1.085       .  S
C1598      C1601   1.446       .  S
C1601      N1603   1.158       .  T
C1602      N1604   1.155       .  T
C1605      C1606   1.413       .  A
C1605      C1610   1.420       .  A
C1606      C1607   1.409       .  A
C1606      H1611   1.084       .  S
C1607      C1608   1.413   1_655  A
C1607      C1614   1.445       .  S
C1608      C1609   1.407       .  A
C1609      C1610   1.411   1_455  A
C1609      H1612   1.085       .  S
C1610      C1613   1.443       .  S
C1613      N1615   1.157       .  T
C1614      N1616   1.157       .  T
C1617      C1618   1.406       .  A
C1617      C1622   1.417       .  A
C1618      C1619   1.400       .  A
C1618      H1623   1.085       .  S
C1619      C1620   1.416       .  A
C1619      C1626   1.445       .  S
C1620      C1621   1.405       .  A
C1621      C1622   1.402       .  A
C1621      H1624   1.085       .  S
C1622      C1625   1.444       .  S
C1625      N1627   1.157   1_655  T
C1626      N1628   1.157       .  T
C1629      C1630   1.411       .  A
C1629      C1634   1.419       .  A
C1630      C1631   1.408       .  A
C1630      H1635   1.084       .  S
C1631      C1632   1.415   1_655  A
C1631      C1638   1.445   1_565  S
C1632      C1633   1.404   1_455  A
C1633      C1634   1.409       .  A
C1633      H1636   1.085   1_655  S
C1634      C1637   1.443       .  S
C1637      N1639   1.157       .  T
C1638      N1640   1.158       .  T
C1641      C1642   1.408   1_656  A
C1641      C1646   1.413       .  A
C1642      C1643   1.392   1_545  A
C1642      H1647   1.085       .  S
C1643      C1644   1.411   1_454  A
C1643      C1650   1.445       .  S
C1644      C1645   1.408       .  A
C1645      C1646   1.396   1_565  A
C1645      H1648   1.085       .  S
C1646      C1649   1.445       .  S
C1649      N1651   1.157       .  T
C1650      N1652   1.157       .  T
C1653      C1654   1.410   1_655  A
C1653      C1658   1.419       .  A
C1654      C1655   1.405       .  A
C1654      H1659   1.084       .  S
C1655      C1656   1.411       .  A
C1655      C1662   1.440       .  S
C1656      C1657   1.410   1_455  A
C1657      C1658   1.411       .  A
C1657      H1660   1.085       .  S
C1658      C1661   1.444       .  S
C1661      N1663   1.157       .  T
C1662      N1664   1.156       .  T
C1665      C1666   1.405       .  A
C1665      C1670   1.411       .  A
C1666      C1667   1.399       .  A
C1666      H1671   1.085       .  S
C1667      C1668   1.412       .  A
C1667      C1674   1.445       .  S
C1668      C1669   1.405       .  A
C1669      C1670   1.397       .  A
C1669      H1672   1.085       .  S
C1670      C1673   1.444       .  S
C1673      N1675   1.157       .  T
C1674      N1676   1.157       .  T
C1677      C1678   1.405       .  A
C1677      C1682   1.410       .  A
C1678      C1679   1.409       .  A
C1678      H1683   1.085       .  S
C1679      C1680   1.417       .  A
C1679      C1686   1.443       .  S
C1680      C1681   1.410       .  A
C1681      C1682   1.400       .  A
C1681      H1684   1.085       .  S
C1682      C1685   1.445   1_545  S
C1685      N1687   1.157       .  T
C1686      N1688   1.157       .  T
C1689      C1690   1.411       .  A
C1689      C1694   1.407       .  A
C1690      C1691   1.402       .  A
C1690      H1695   1.085       .  S
C1691      C1692   1.409       .  A
C1691      C1698   1.444       .  S
C1692      C1693   1.412       .  A
C1693      C1694   1.403       .  A
C1693      H1696   1.085       .  S
C1694      C1697   1.444       .  S
C1697      N1699   1.157       .  T
C1698      N1700   1.157   1_565  T
C1701      C1702   1.410       .  A
C1701      C1706   1.417       .  A
C1702      C1703   1.405       .  A
C1702      H1707   1.084       .  S
C1703      C1704   1.416       .  A
C1703      C1710   1.445       .  S
C1704      C1705   1.409       .  A
C1705      C1706   1.408       .  A
C1705      H1708   1.084       .  S
C1706      C1709   1.444       .  S
C1709      N1711   1.157       .  T
C1710      N1712   1.157       .  T
C1713      C1714   1.408   1_556  A
C1713      C1718   1.413       .  A
C1714      C1715   1.392       .  A
C1714      H1719   1.085       .  S
C1715      C1716   1.410   1_554  A
C1715      C1722   1.445       .  S
C1716      C1717   1.408       .  A
C1717      C1718   1.395       .  A
C1717      H1720   1.085       .  S
C1718      C1721   1.445       .  S
C1721      N1723   1.158       .  T
C1722      N1724   1.157       .  T
C1725      C1726   1.395       .  A
C1725      C1730   1.413       .  A
C1726      C1727   1.396       .  A
C1726      H1731   1.085       .  S
C1727      C1728   1.413       .  A
C1727      C1734   1.442       .  S
C1728      C1729   1.397       .  A
C1729      C1730   1.398       .  A
C1729      H1732   1.085       .  S
C1730      C1733   1.443       .  S
C1733      N1735   1.157       .  T
C1734      N1736   1.157       .  T
C1737      C1738   1.406       .  A
C1737      C1742   1.412   1_655  A
C1738      C1739   1.407       .  A
C1738      H1743   1.082       .  S
C1739      C1740   1.419   1_655  A
C1739      C1746   1.445       .  S
C1740      C1741   1.410       .  A
C1741      C1742   1.401       .  A
C1741      H1744   1.084       .  S
C1742      C1745   1.445   1_545  S
C1745      N1747   1.157       .  T
C1746      N1748   1.158       .  T
C1749      C1750   1.407       .  A
C1749      C1754   1.419       .  A
C1750      C1751   1.403       .  A
C1750      H1755   1.085       .  S
C1751      C1752   1.414       .  A
C1751      C1758   1.443       .  S
C1752      C1753   1.405       .  A
C1753      C1754   1.399       .  A
C1753      H1756   1.085       .  S
C1754      C1757   1.446       .  S
C1757      N1759   1.158   1_565  T
C1758      N1760   1.157       .  T
C1761      C1762   1.408       .  A
C1761      C1766   1.415       .  A
C1762      C1763   1.407   1_655  A
C1762      H1767   1.085   1_655  S
C1763      C1764   1.418       .  A
C1763      C1770   1.443       .  S
C1764      C1765   1.413   1_455  A
C1765      C1766   1.409       .  A
C1765      H1768   1.084       .  S
C1766      C1769   1.444       .  S
C1769      N1771   1.157       .  T
C1770      N1772   1.157       .  T
C1773      C1774   1.390   1_655  A
C1773      C1778   1.419       .  A
C1774      C1775   1.392       .  A
C1774      H1779   1.085       .  S
C1775      C1776   1.419       .  A
C1775      C1782   1.443       .  S
C1776      C1777   1.392   1_455  A
C1777      C1778   1.393       .  A
C1777      H1780   1.085       .  S
C1778      C1781   1.445       .  S
C1781      N1783   1.157       .  T
C1782      N1784   1.156       .  T
C1785      C1786   1.403       .  A
C1785      C1790   1.415       .  A
C1786      C1787   1.399       .  A
C1786      H1791   1.085       .  S
C1787      C1788   1.416       .  A
C1787      C1794   1.445       .  S
C1788      C1789   1.401       .  A
C1789      C1790   1.396       .  A
C1789      H1792   1.085       .  S
C1790      C1793   1.445       .  S
C1793      N1795   1.157       .  T
C1794      N1796   1.158       .  T
C1797      C1798   1.405       .  A
C1797      C1802   1.413       .  A
C1798      C1799   1.407       .  A
C1798      H1803   1.085       .  S
C1799      C1800   1.419       .  A
C1799      C1806   1.443       .  S
C1800      C1801   1.410       .  A
C1801      C1802   1.401       .  A
C1801      H1804   1.084       .  S
C1802      C1805   1.446   1_565  S
C1805      N1807   1.158       .  T
C1806      N1808   1.157       .  T
C1809      C1810   1.407       .  A
C1809      C1814   1.412       .  A
C1810      C1811   1.391   1_565  A
C1810      H1815   1.086       .  S
C1811      C1812   1.412       .  A
C1811      C1818   1.446       .  S
C1812      C1813   1.405       .  A
C1813      C1814   1.388   1_545  A
C1813      H1816   1.086       .  S
C1814      C1817   1.445       .  S
C1817      N1819   1.157       .  T
C1818      N1820   1.158       .  T
C1821      C1822   1.403       .  A
C1821      C1826   1.412       .  A
C1822      C1823   1.396       .  A
C1822      H1827   1.085       .  S
C1823      C1824   1.418       .  A
C1823      C1830   1.445       .  S
C1824      C1825   1.407       .  A
C1825      C1826   1.399       .  A
C1825      H1828   1.084       .  S
C1826      C1829   1.445       .  S
C1829      N1831   1.157       .  T
C1830      N1832   1.157   1_565  T
C1833      C1834   1.413       .  A
C1833      C1838   1.408       .  A
C1834      C1835   1.405       .  A
C1834      H1839   1.085       .  S
C1835      C1836   1.407       .  A
C1835      C1842   1.444       .  S
C1836      C1837   1.411       .  A
C1837      C1838   1.401       .  A
C1837      H1840   1.085       .  S
C1838      C1841   1.444       .  S
C1841      N1843   1.157       .  T
C1842      N1844   1.157   1_565  T
C1845      C1846   1.405       .  A
C1845      C1850   1.412       .  A
C1846      C1847   1.408       .  A
C1846      H1851   1.085       .  S
C1847      C1848   1.421       .  A
C1847      C1854   1.444       .  S
C1848      C1849   1.410       .  A
C1849      C1850   1.402       .  A
C1849      H1852   1.085       .  S
C1850      C1853   1.445       .  S
C1853      N1855   1.157       .  T
C1854      N1856   1.157       .  T
