geometry optimzed in LAMMPS
_audit_creation_date              2020-12-01 
_audit_creation_method            'lammps2cif' 
_symmetry_space_group_name_H-M    'P1' 
_symmetry_Int_Tables_number       1 
_symmetry_cell_setting            triclinic 
loop_ 
_symmetry_equiv_pos_as_xyz 
  x,y,z 
_cell_length_a                    28.31142688 
_cell_length_b                    47.11141247193995 
_cell_length_c                    26.809344043092025 
_cell_angle_alpha                 90.041820542122 
_cell_angle_beta                  97.98033608431825 
_cell_angle_gamma                 89.90357794041296 
loop_ 
_atom_site_label 
_atom_site_type_symbol 
_atom_site_fract_x 
_atom_site_fract_y 
_atom_site_fract_z 
_atom_site_charge 
O1          O  0.32275205  0.57295548  0.64503982    -0.81300
C2          C  0.15801587  0.62990562  0.67186624     0.98100
O3          O  0.19670755  0.62162500  0.69604336    -0.70400
O4          O  0.26756351  0.58686281  0.72065271    -0.74000
Al5        Al  0.25617460  0.61921351  0.67405155     1.49000
C6          C  0.25414630  0.56106388  0.71618681     0.93300
O7          O  0.19994828  0.54713121  0.57890772    -0.80200
O8          O  0.20874914  0.59291487  0.51921857    -0.73800
Al9        Al  0.25868837  0.56412475  0.61251049     1.90100
O10         O  0.14780764  0.58055113  0.58740070    -0.72900
O11         O  0.22155026  0.64319006  0.56090622    -0.72700
O12         O  0.15376307  0.63186584  0.62430122    -0.78400
O13         O  0.24835118  0.65587737  0.63852075    -0.76600
O14         O  0.23413812  0.59832290  0.62098673    -1.12700
O15         O  0.31877077  0.61866331  0.65826004    -0.71900
C16         C  0.34286096  0.59616421  0.65929648     0.98800
C17         C  0.15710319  0.55566948  0.57480826     0.95200
Al18       Al  0.18697402  0.61126551  0.57650184     1.55600
O19         O  0.24117021  0.55074186  0.67309574    -0.76500
C20         C  0.23893497  0.66169350  0.59183420     0.99400
C21         C  0.24673616  0.57992510  0.51263604     0.94300
O22         O  0.27779990  0.57441025  0.54993835    -0.81800
O23         O  0.69446636  0.57870538  0.87186761    -0.81300
C24         C  0.87766142  0.62452015  0.86235093     0.98100
O25         O  0.83897034  0.63355671  0.83874525    -0.70400
O26         O  0.79136460  0.59305609  0.78517935    -0.74000
Al27       Al  0.77499201  0.62031910  0.83466846     1.49000
C28         C  0.77643407  0.56775946  0.77988294     0.93300
O29         O  0.81485401  0.54082629  0.89129739    -0.80200
O30         O  0.78168464  0.59770468  0.98732938    -0.73800
Al31       Al  0.75624457  0.56200997  0.88202986     1.90100
O32         O  0.85104701  0.56739393  0.95190926    -0.72900
O33         O  0.81205898  0.64292792  0.94185089    -0.72700
O34         O  0.87778816  0.61012062  0.90203493    -0.78400
O35         O  0.75767823  0.65088577  0.87723821    -0.76600
O36         O  0.78581728  0.59558222  0.88590664    -1.12700
O37         O  0.70882652  0.61202294  0.81913559    -0.71900
C38         C  0.67967227  0.59659311  0.83814571     0.98800
C39         C  0.84749565  0.54449295  0.92784126     0.95200
Al40       Al  0.82698834  0.60403387  0.94069980     1.55600
O41         O  0.75527174  0.55658304  0.81293060    -0.76500
C42         C  0.78074214  0.65889281  0.91878932     0.99400
C43         C  0.75873893  0.57472443  0.98911937     0.94300
O44         O  0.75064492  0.55930723  0.95068052    -0.81800
O45         O  0.74721301  0.43926010  0.44696518    -0.81300
C46         C  0.85573336  0.37131003  0.33227058     0.98100
O47         O  0.85934647  0.37076468  0.37991662    -0.70400
O48         O  0.87474090  0.42312460  0.40792465    -0.74000
Al49       Al  0.83113943  0.39608863  0.42473958     1.49000
C50         C  0.86936412  0.44928401  0.41435641     0.93300
O51         O  0.78382274  0.45355990  0.32012455    -0.80200
O52         O  0.69609284  0.39200698  0.34615818    -0.73800
Al53       Al  0.76604816  0.44477553  0.38277022     1.90100
O54         O  0.75012013  0.41689335  0.27866994    -0.72900
O55         O  0.76111919  0.35214962  0.37160868    -0.72700
O56         O  0.81741448  0.37951797  0.30705476    -0.78400
O57         O  0.79216575  0.36799861  0.44582346    -0.76600
O58         O  0.78493010  0.40907729  0.37909205    -1.12700
O59         O  0.81417725  0.41924211  0.47986143    -0.71900
C60         C  0.77785965  0.43429529  0.48485120     0.98800
C61         C  0.76715246  0.44192078  0.27932938     0.95200
Al62       Al  0.75840867  0.38668730  0.32979422     1.55600
O63         O  0.82778529  0.45972999  0.41171402    -0.76500
C64         C  0.77005479  0.34897465  0.41921709     0.99400
C65         C  0.67571982  0.41585205  0.34362052     0.94300
O66         O  0.70022564  0.43819841  0.35335476    -0.81800
O67         O  0.27089457  0.43753985  0.05430637    -0.81300
C68         C  0.15390964  0.37525746  0.16715085     0.98100
O69         O  0.15498010  0.37083446  0.12051980    -0.70400
O70         O  0.14152771  0.42052592  0.08206488    -0.74000
Al71       Al  0.18741839  0.39371705  0.07450084     1.49000
C72         C  0.14516404  0.44665229  0.07518399     0.93300
O73         O  0.22484197  0.45623547  0.17460990    -0.80200
O74         O  0.31557097  0.39349187  0.16436939    -0.73800
Al75       Al  0.24712785  0.44503418  0.11522033     1.90100
O76         O  0.25721691  0.42197468  0.22257089    -0.72900
O77         O  0.24992013  0.35289198  0.14195588    -0.72700
O78         O  0.19019939  0.38500193  0.19400136    -0.78400
O79         O  0.22998048  0.36474017  0.06255124    -0.76600
O80         O  0.22905148  0.40944835  0.12184208    -1.12700
O81         O  0.20823139  0.41456445  0.01836667    -0.71900
C82         C  0.24344442  0.43080033  0.01501381     0.98800
C83         C  0.24027596  0.44693069  0.21774616     0.95200
Al84       Al  0.25148649  0.38968762  0.17634732     1.55600
O85         O  0.18586493  0.45842481  0.08012615    -0.76500
C86         C  0.24552355  0.34674481  0.09535573     0.99400
C87         C  0.33585768  0.41734809  0.16409294     0.94300
O88         O  0.31178858  0.43938654  0.14969685    -0.81800
O89         O  0.74609917  0.93542240  0.05336935    -0.81300
C90         C  0.63285588  0.87147497  0.16934881     0.98100
O91         O  0.63163066  0.86883301  0.12212968    -0.70400
O92         O  0.61761681  0.92021961  0.08878359    -0.74000
Al93       Al  0.66192212  0.89263203  0.07651078     1.49000
C94         C  0.62282489  0.94595371  0.07893213     0.93300
O95         O  0.70563613  0.95327044  0.17744028    -0.80200
O96         O  0.79353863  0.89031417  0.16112501    -0.73800
Al97       Al  0.72517604  0.94253838  0.11641806     1.90100
O98         O  0.73695144  0.91786627  0.22357589    -0.72900
O99         O  0.72837699  0.85023680  0.13782659    -0.72700
O100        O  0.67005560  0.88053128  0.19549914    -0.78400
O101        O  0.70234252  0.86361404  0.06038771    -0.76600
O102        O  0.70617160  0.90703214  0.12265890    -1.12700
O103        O  0.68062040  0.91416192  0.02011556    -0.71900
C104        C  0.71633570  0.92965810  0.01513102     0.98800
C105        C  0.72052556  0.94305559  0.22010151     0.95200
Al106      Al  0.73029712  0.88620287  0.17527880     1.55600
O107        O  0.66415385  0.95680948  0.08402159    -0.76500
C108        C  0.72191605  0.84529553  0.09065239     0.99400
C109        C  0.81393352  0.91404687  0.16070025     0.94300
O110        O  0.78994962  0.93627886  0.14816258    -0.81800
O111        O  0.22223766  0.94012224  0.43719211    -0.81300
C112        C  0.33465160  0.87292058  0.32721089     0.98100
O113        O  0.33705993  0.87242057  0.37479277    -0.70400
O114        O  0.35150804  0.92490974  0.40252056    -0.74000
Al115      Al  0.30758285  0.89782794  0.41852118     1.49000
C116        C  0.34561216  0.95100464  0.40896632     0.93300
O117        O  0.26229052  0.95460894  0.31314991    -0.80200
O118        O  0.17443979  0.89277406  0.33654588    -0.73800
Al119      Al  0.24287191  0.94592620  0.37446152     1.90100
O120        O  0.22936394  0.91838783  0.27025259    -0.72900
O121        O  0.24095077  0.85305896  0.36356783    -0.72700
O122        O  0.29713884  0.88140003  0.30081145    -0.78400
O123        O  0.26809685  0.86963459  0.43858291    -0.76600
O124        O  0.26236468  0.91044737  0.37153053    -1.12700
O125        O  0.28920090  0.92141710  0.47290785    -0.71900
C126        C  0.25253947  0.93660966  0.47578150     0.98800
C127        C  0.24511191  0.94379363  0.27187344     0.95200
Al128      Al  0.23742225  0.88794729  0.32171193     1.55600
O129        O  0.30381494  0.96128386  0.40502228    -0.76500
C130        C  0.25014251  0.84962109  0.41120191     0.99400
C131        C  0.15386940  0.91659922  0.33352446     0.94300
O132        O  0.17790439  0.93904975  0.34352537    -0.81800
O133        O  0.17860661  0.07409295  0.84452881    -0.81300
C134        C  0.33966749  0.13613084  0.82781496     0.98100
O135        O  0.30121600  0.12964224  0.80098159    -0.70400
O136        O  0.23158854  0.09445159  0.76997123    -0.74000
Al137      Al  0.24128164  0.12386654  0.82240821     1.49000
C138        C  0.24494444  0.06859661  0.77027046     0.93300
O139        O  0.30134960  0.04767099  0.90216042    -0.80200
O140        O  0.29214850  0.08787762  0.97139136    -0.73800
Al141      Al  0.24220847  0.06512592  0.87343063     1.90100
O142        O  0.35271015  0.08203922  0.90007300    -0.72900
O143        O  0.27595943  0.14020754  0.93957717    -0.72700
O144        O  0.34316076  0.13515256  0.87526473    -0.78400
O145        O  0.24743722  0.15782184  0.86572164    -0.76600
O146        O  0.26491862  0.10005497  0.87105614    -1.12700
O147        O  0.17759185  0.12036356  0.83726057    -0.71900
C148        C  0.15581319  0.09696318  0.83539590     0.98800
C149        C  0.34398966  0.05621282  0.90607687     0.95200
Al150      Al  0.31193605  0.11071704  0.91780440     1.55600
O151        O  0.25909070  0.05601766  0.81093373    -0.76500
C152        C  0.25784556  0.16061380  0.91327806     0.99400
C153        C  0.25433716  0.07420645  0.97542027     0.94300
O154        O  0.22328820  0.07106589  0.93732300    -0.81800
O155        O  0.79332501  0.07119340  0.65105448    -0.81300
C156        C  0.63362957  0.13682605  0.66062168     0.98100
O157        O  0.66730619  0.12599323  0.69023018    -0.70400
O158        O  0.73452160  0.08854176  0.72328105    -0.74000
Al159      Al  0.73002034  0.12061063  0.67598409     1.49000
C160        C  0.71971512  0.06309736  0.71836964     0.93300
O161        O  0.67001697  0.05102409  0.57960083    -0.80200
O162        O  0.69278212  0.09489272  0.51784282    -0.73800
Al163      Al  0.72985287  0.06474156  0.61564497     1.90100
O164        O  0.62352698  0.08848442  0.57707189    -0.72900
O165        O  0.71420069  0.14449977  0.56157973    -0.72700
O166        O  0.63675019  0.13934373  0.61418485    -0.78400
O167        O  0.73001830  0.15717992  0.64095671    -0.76600
O168        O  0.71026663  0.10029211  0.62113266    -1.12700
O169        O  0.79453727  0.11699050  0.66701544    -0.71900
C170        C  0.81595195  0.09359753  0.66566124     0.98800
C171        C  0.62909616  0.06236589  0.56988565     0.95200
Al172      Al  0.67048715  0.11576688  0.57171057     1.55600
O173        O  0.70682423  0.05326245  0.67496446    -0.76500
C174        C  0.72866139  0.16279667  0.59438817     0.99400
C175        C  0.72751396  0.07834028  0.51502289     0.94300
O176        O  0.75489199  0.07173165  0.55450446    -0.81800
C177        C  0.41926196  0.15884655  0.73212888    -0.13900
C178        C  0.46204377  0.14510558  0.75122294     0.16500
C179        C  0.46471099  0.13016382  0.79716347     0.02800
C180        C  0.42532323  0.12947407  0.82330641    -0.12400
C181        C  0.38219429  0.14248265  0.80362128    -0.03400
C182        C  0.37928288  0.15751934  0.75776258     0.02100
C183        C  0.50448240  0.14719736  0.72439805     0.08900
N184        N  0.50626510  0.11409130  0.81615617     0.65300
H185        H  0.42754984  0.11709199  0.85758648     0.18200
N186        N  0.33654657  0.17222396  0.73770276     0.75700
H187        H  0.41715778  0.17104228  0.69769968     0.09700
C188        C  0.50300719  0.13877449  0.67367707     0.03400
C189        C  0.54523660  0.13783836  0.65187622    -0.05300
C190        C  0.58919872  0.14489899  0.68009159    -0.23700
C191        C  0.59007893  0.15538347  0.72943734     0.12600
C192        C  0.54790698  0.15651481  0.75106808    -0.12900
N193        N  0.45974190  0.12890375  0.64516541     0.64300
H194        H  0.54409777  0.12958156  0.61406401     0.12100
N195        N  0.63361879  0.16483825  0.75805351     0.60900
H196        H  0.54922299  0.16413332  0.78932659     0.08300
O197        O  0.31855058  0.16856066  0.69240020    -0.40500
O198        O  0.31959338  0.19106834  0.76364607    -0.39700
O199        O  0.52874769  0.11964270  0.85903615    -0.39700
O200        O  0.51749680  0.09249199  0.79248914    -0.37400
O201        O  0.65298065  0.18741296  0.74576988    -0.38300
O202        O  0.64982768  0.15247525  0.79858069    -0.34500
O203        O  0.43834924  0.14418396  0.61049659    -0.35900
O204        O  0.44722357  0.10340594  0.64914444    -0.40200
C205        C  0.02485585  0.11595849  0.79875992    -0.13900
C206        C  0.00912342  0.09260640  0.76822087     0.16500
C207        C  0.04132254  0.07035813  0.76222740     0.02800
C208        C  0.08786940  0.07160946  0.78765222    -0.12400
C209        C  0.10422412  0.09538725  0.81667690    -0.03400
C210        C  0.07217576  0.11768318  0.82241172     0.02100
C211        C  0.95943979  0.09220243  0.74181055     0.08900
N212        N  0.02846786  0.04739060  0.72783234     0.65300
H213        H  0.11245400  0.05470956  0.78162734     0.18200
N214        N  0.08695135  0.14202719  0.85234507     0.75700
H215        H  0.00040060  0.13311045  0.80367765     0.09700
C216        C  0.92821176  0.06921260  0.74640449     0.03400
C217        C  0.88281349  0.06907925  0.71771687    -0.05300
C218        C  0.86691507  0.09210300  0.68665515    -0.23700
C219        C  0.89801459  0.11505010  0.68255051     0.12600
C220        C  0.94395185  0.11478068  0.70955789    -0.12900
N221        N  0.94095866  0.04674115  0.78189771     0.64300
H222        H  0.85856184  0.05184377  0.72251917     0.12100
N223        N  0.88388138  0.13845734  0.65004794     0.60900
H224        H  0.96779374  0.13228915  0.70516281     0.08300
O225        O  0.07854165  0.14330722  0.89729321    -0.40500
O226        O  0.10081129  0.16395587  0.83163603    -0.39700
O227        O  0.01062825  0.05254094  0.68293688    -0.39700
O228        O  0.04094539  0.02232896  0.74008416    -0.37400
O229        O  0.86999008  0.16120655  0.66824732    -0.38300
O230        O  0.89432724  0.13833107  0.60582547    -0.34500
O231        O  0.95862202  0.05248643  0.82661007    -0.35900
O232        O  0.92926581  0.02146321  0.77049683    -0.40200
C233        C  0.47340929  0.97424992  0.44863019    -0.13900
C234        C  0.46658608  0.99718442  0.48023315     0.16500
C235        C  0.41978464  0.00620521  0.48459825     0.02800
C236        C  0.38084590  0.99222959  0.45762898    -0.12400
C237        C  0.38749380  0.96859324  0.42750823    -0.03400
C238        C  0.43443507  0.95976871  0.42265683     0.02100
C239        C  0.50843370  0.01326257  0.50460761     0.08900
N240        N  0.41123147  0.02864426  0.51826269     0.65300
H241        H  0.34523168  0.99879541  0.46297759     0.18200
N242        N  0.44318379  0.93616454  0.39157705     0.75700
H243        H  0.50912769  0.96774564  0.44364037     0.09700
C244        C  0.54716590  0.99997192  0.53455696     0.03400
C245        C  0.58656271  0.01616997  0.55530308    -0.05300
C246        C  0.58774099  0.04555085  0.54702610    -0.23700
C247        C  0.54947490  0.05857795  0.51570910     0.12600
C248        C  0.51042721  0.04241139  0.49510428    -0.12900
N249        N  0.54650930  0.97024715  0.54518541     0.64300
H250        H  0.61576926  0.00586200  0.57881069     0.12100
N251        N  0.55080578  0.08786996  0.50191509     0.60900
H252        H  0.48197169  0.05259320  0.47030872     0.08300
O253        O  0.45840712  0.91305620  0.41154804    -0.40500
O254        O  0.44104455  0.93941135  0.34460306    -0.39700
O255        O  0.38684092  0.04997769  0.50195728    -0.39700
O256        O  0.42379078  0.02579450  0.56503292    -0.37400
O257        O  0.57589084  0.09548576  0.46889804    -0.38300
O258        O  0.52124306  0.10507440  0.51626066    -0.34500
O259        O  0.57808840  0.95417892  0.53160230    -0.35900
O260        O  0.51775913  0.96061139  0.57294147    -0.40200
C261        C  0.27579586  0.97080356  0.60632337    -0.13900
C262        C  0.24350502  0.99362719  0.59997960     0.16500
C263        C  0.21319404  0.99655873  0.55429155     0.02800
C264        C  0.21496980  0.97670838  0.51589800    -0.12400
C265        C  0.24796146  0.95406811  0.52118612    -0.03400
C266        C  0.27900297  0.95139509  0.56709218     0.02100
C267        C  0.24087710  0.01381604  0.64185892     0.08900
N268        N  0.18059728  0.01981488  0.54622145     0.65300
H269        H  0.19137562  0.97982528  0.48094824     0.18200
N270        N  0.31489114  0.92982362  0.57407233     0.75700
H271        H  0.29949308  0.96852704  0.64144211     0.09700
C272        C  0.22437933  0.00463713  0.68617392     0.03400
C273        C  0.22511369  0.02322729  0.72679395    -0.05300
C274        C  0.24145011  0.05127360  0.72403832    -0.23700
C275        C  0.25650529  0.06088150  0.67912370     0.12600
C276        C  0.25608629  0.04208607  0.63825277    -0.12900
N277        N  0.20610774  0.97655551  0.69005881     0.64300
H278        H  0.21265965  0.01568361  0.76084753     0.12100
N279        N  0.27534360  0.08883438  0.67578129     0.60900
H280        H  0.26917558  0.04922875  0.60432693     0.08300
O281        O  0.31030875  0.90923794  0.60308322    -0.40500
O282        O  0.35472086  0.93415447  0.55934623    -0.39700
O283        O  0.19151014  0.04142856  0.52252961    -0.39700
O284        O  0.13890787  0.01734774  0.55724352    -0.37400
O285        O  0.31613482  0.09479522  0.69866371    -0.38300
O286        O  0.25275207  0.10698358  0.64716938    -0.34500
O287        O  0.22743306  0.95927238  0.72140181    -0.35900
O288        O  0.16623807  0.96995231  0.66573086    -0.40200
C289        C  0.24148638  0.00966212  0.18988931    -0.13900
C290        C  0.24340380  0.99811179  0.14234150     0.16500
C291        C  0.24341340  0.96830077  0.13637492     0.02800
C292        C  0.24203899  0.95060950  0.17846101    -0.12400
C293        C  0.24215918  0.96227636  0.22667336    -0.03400
C294        C  0.24088481  0.99229725  0.23178348     0.02100
C295        C  0.24495746  0.01808142  0.10000240     0.08900
N296        N  0.24748234  0.95576789  0.08856449     0.65300
H297        H  0.24309698  0.92779655  0.17380328     0.18200
N298        N  0.23800814  0.00573765  0.27914656     0.75700
H299        H  0.24051015  0.03250012  0.19457058     0.09700
C300        C  0.20644173  0.02085254  0.06104611     0.03400
C301        C  0.20911727  0.04056240  0.02243822    -0.05300
C302        C  0.24931347  0.05813203  0.02212397    -0.23700
C303        C  0.28706833  0.05601460  0.06258875     0.12600
C304        C  0.28457872  0.03596344  0.10070194    -0.12900
N305        N  0.16410530  0.00419676  0.06066157     0.64300
H306        H  0.17964450  0.04178072  0.99206316     0.12100
N307        N  0.32896177  0.07319597  0.06477226     0.60900
H308        H  0.31393122  0.03426560  0.13116351     0.08300
O309        O  0.19815943  0.01448148  0.28891804    -0.40500
O310        O  0.27565140  0.01456084  0.30526079    -0.39700
O311        O  0.28540361  0.95895544  0.06943957    -0.39700
O312        O  0.21708055  0.93779429  0.06981817    -0.37400
O313        O  0.36924005  0.06167409  0.06473028    -0.38300
O314        O  0.32631660  0.09964843  0.07139914    -0.34500
O315        O  0.14056899  0.00552514  0.09728253    -0.35900
O316        O  0.14709913  0.99089735  0.02137334    -0.40200
C317        C  0.50373093  0.96440991  0.00431287    -0.13900
C318        C  0.50536004  0.99409635  0.00386013     0.16500
C319        C  0.54482513  0.00822402  0.03128961     0.02800
C320        C  0.58283860  0.99214559  0.05596334    -0.12400
C321        C  0.58088844  0.96239112  0.05638265    -0.03400
C322        C  0.54014574  0.94855242  0.03103246     0.02100
C323        C  0.46459879  0.00923725  0.97489523     0.08900
N324        N  0.54635423  0.03858925  0.03566427     0.65300
H325        H  0.61357529  0.00293996  0.07585758     0.18200
N326        N  0.53577929  0.91830617  0.03003134     0.75700
H327        H  0.47385441  0.95329358  0.98336740     0.09700
C328        C  0.47040443  0.03044462  0.93897900     0.03400
C329        C  0.43009175  0.04474394  0.91509432    -0.05300
C330        C  0.38397681  0.03706179  0.92372030    -0.23700
C331        C  0.37822666  0.01412571  0.95615572     0.12600
C332        C  0.41844529  0.00126089  0.98263251    -0.12900
N333        N  0.51645079  0.03739031  0.92575426     0.64300
H334        H  0.43475177  0.06193075  0.88942926     0.12100
N335        N  0.33207962  0.00409338  0.96393922     0.60900
H336        H  0.41352630  0.98467005  0.00938021     0.08300
O337        O  0.54644375  0.90452761  0.99277978    -0.40500
O338        O  0.51400709  0.90603330  0.06190493    -0.39700
O339        O  0.51062782  0.05205960  0.04668072    -0.39700
O340        O  0.58499504  0.05167948  0.03406401    -0.37400
O341        O  0.30577408  0.99213372  0.92818243    -0.38300
O342        O  0.32214812  0.00159613  0.00815080    -0.34500
O343        O  0.54457198  0.01791702  0.91626632    -0.35900
O344        O  0.52697645  0.06289467  0.91803968    -0.40200
C345        C  0.73386329  0.03196736  0.85233265    -0.13900
C346        C  0.72555290  0.00295923  0.84210538     0.16500
C347        C  0.71420241  0.99427001  0.79160236     0.02800
C348        C  0.71098276  0.01434533  0.75270466    -0.12400
C349        C  0.71985534  0.04343326  0.76241116    -0.03400
C350        C  0.73127854  0.05212439  0.81317393     0.02100
C351        C  0.72511566  0.98223781  0.88428274     0.08900
N352        N  0.70757510  0.96487905  0.77906165     0.65300
H353        H  0.70288575  0.00676730  0.71434235     0.18200
N354        N  0.73938298  0.08132152  0.82582464     0.75700
H355        H  0.74155364  0.03909476  0.89100028     0.09700
C356        C  0.76534475  0.97770607  0.92064763     0.03400
C357        C  0.76268800  0.95902892  0.96103824    -0.05300
C358        C  0.72025498  0.94444062  0.96642566    -0.23700
C359        C  0.68016713  0.94859396  0.92905717     0.12600
C360        C  0.68304744  0.96732812  0.88880805    -0.12900
N361        N  0.80919819  0.99202160  0.91714798     0.64300
H362        H  0.79379670  0.95654857  0.98911421     0.12100
N363        N  0.63521918  0.93555907  0.93288139     0.60900
H364        H  0.65168554  0.97079601  0.86144008     0.08300
O365        O  0.78146286  0.09030818  0.83715757    -0.40500
O366        O  0.70473948  0.09696879  0.83297924    -0.39700
O367        O  0.66897028  0.95658778  0.75411712    -0.39700
O368        O  0.74219737  0.94784787  0.78773162    -0.37400
O369        O  0.62940302  0.90952401  0.92279431    -0.38300
O370        O  0.59933637  0.95091734  0.93672717    -0.34500
O371        O  0.82293629  0.01169498  0.94768097    -0.35900
O372        O  0.83713000  0.98246429  0.88835398    -0.40200
C373        C  0.76712801  0.02750032  0.41823308    -0.13900
C374        C  0.72363345  0.02267749  0.38717724     0.16500
C375        C  0.68290025  0.03826059  0.39613911     0.02800
C376        C  0.68687741  0.05856939  0.43474952    -0.12400
C377        C  0.72984673  0.06262542  0.46722118    -0.03400
C378        C  0.77041845  0.04702563  0.45821628     0.02100
C379        C  0.72197186  0.00207058  0.34464041     0.08900
N380        N  0.63661560  0.03245771  0.36878914     0.65300
H381        H  0.65493036  0.06943649  0.44202563     0.18200
N382        N  0.81512038  0.05053463  0.48956132     0.75700
H383        H  0.79868965  0.01595776  0.41150418     0.09700
C384        C  0.70504236  0.01014236  0.29464475     0.03400
C385        C  0.70309700  0.99003797  0.25597503    -0.05300
C386        C  0.71992873  0.96204295  0.26479885    -0.23700
C387        C  0.73708835  0.95402771  0.31490417     0.12600
C388        C  0.73733884  0.97392998  0.35417871    -0.12900
N389        N  0.69174738  0.03894691  0.28195903     0.64300
H390        H  0.69011274  0.99700121  0.21804681     0.12100
N391        N  0.75540601  0.92616584  0.32667633     0.60900
H392        H  0.75037217  0.96747931  0.39241594     0.08300
O393        O  0.84262231  0.07039605  0.48072930    -0.40500
O394        O  0.82995682  0.03158240  0.52115546    -0.39700
O395        O  0.62197654  0.00719443  0.36342409    -0.39700
O396        O  0.60794497  0.05256261  0.35599818    -0.37400
O397        O  0.79609183  0.91949926  0.31619538    -0.38300
O398        O  0.73590414  0.91066887  0.35629679    -0.34500
O399        O  0.71958021  0.05902921  0.29707019    -0.35900
O400        O  0.65521899  0.04407207  0.25055213    -0.40200
C401        C  0.54362763  0.87031074  0.26376196    -0.13900
C402        C  0.50706420  0.85333673  0.23903723     0.16500
C403        C  0.51279023  0.84135858  0.19196055     0.02800
C404        C  0.55407383  0.84715602  0.16999708    -0.12400
C405        C  0.59034286  0.86469171  0.19432382    -0.03400
C406        C  0.58460335  0.87638209  0.24192653     0.02100
C407        C  0.46062500  0.85271725  0.25931255     0.08900
N408        N  0.47700063  0.82319501  0.16617124     0.65300
H409        H  0.55773922  0.83787969  0.13378254     0.18200
N410        N  0.61775419  0.89650540  0.26677333     0.75700
H411        H  0.53884989  0.88063829  0.29881618     0.09700
C412        C  0.45795327  0.84583519  0.31009158     0.03400
C413        C  0.41624742  0.85175762  0.33108081    -0.05300
C414        C  0.37643130  0.86436526  0.30230301    -0.23700
C415        C  0.37866851  0.87024510  0.25077876     0.12600
C416        C  0.42033125  0.86426926  0.22997764    -0.12900
N417        N  0.49769955  0.83323351  0.34102322     0.64300
H418        H  0.41537797  0.84682195  0.37035968     0.12100
N419        N  0.34066041  0.88450466  0.21991315     0.60900
H420        H  0.42225731  0.87055395  0.19148205     0.08300
O421        O  0.62201038  0.92048275  0.24691173    -0.40500
O422        O  0.63498879  0.89269390  0.31226631    -0.39700
O423        O  0.45696946  0.82960971  0.12261769    -0.39700
O424        O  0.46899750  0.79934841  0.18467770    -0.37400
O425        O  0.33858289  0.91126285  0.22046739    -0.38300
O426        O  0.31415995  0.87086379  0.18651216    -0.34500
O427        O  0.51499574  0.84493147  0.38185157    -0.35900
O428        O  0.51228806  0.80897103  0.33020766    -0.40200
C429        C  0.03451217  0.94147768  0.26424262    -0.13900
C430        C  0.00571848  0.91756465  0.26789199     0.16500
C431        C  0.02532256  0.89389394  0.29581483     0.02800
C432        C  0.07323820  0.89426563  0.31803142    -0.12400
C433        C  0.10215783  0.91815016  0.31406409    -0.03400
C434        C  0.08205910  0.94205474  0.28710089     0.02100
C435        C  0.95662023  0.91710112  0.23926968     0.08900
N436        N  0.99692409  0.86943038  0.30235796     0.65300
H437        H  0.08787639  0.87576286  0.33857626     0.18200
N438        N  0.11033299  0.96621758  0.27876979     0.75700
H439        H  0.02061327  0.95946056  0.24173007     0.09700
C440        C  0.92444217  0.93978657  0.24232324     0.03400
C441        C  0.87955155  0.93943184  0.21278121    -0.05300
C442        C  0.86500924  0.91628376  0.18141788    -0.23700
C443        C  0.89734580  0.89385477  0.17758183     0.12600
C444        C  0.94285577  0.89457095  0.20595584    -0.12900
N445        N  0.93561597  0.96246341  0.27755888     0.64300
H446        H  0.85464203  0.95638801  0.21727257     0.12100
N447        N  0.88469636  0.87043412  0.14448283     0.60900
H448        H  0.96764542  0.87754810  0.20165040     0.08300
O449        O  0.10351642  0.98934871  0.30043793    -0.40500
O450        O  0.13392191  0.96612063  0.24215867    -0.39700
O451        O  0.01038513  0.84519315  0.28995141    -0.39700
O452        O  0.96062271  0.87168018  0.32460029    -0.37400
O453        O  0.88394313  0.87348094  0.09761849    -0.38300
O454        O  0.87923419  0.84606754  0.16231536    -0.34500
O455        O  0.93152754  0.98791199  0.26290542    -0.35900
O456        O  0.94446941  0.95715598  0.32406359    -0.40200
C457        C  0.25228835  0.23980906  0.94427159    -0.13900
C458        C  0.25916154  0.23895448  0.99722173     0.16500
C459        C  0.26183177  0.21250676  0.02157135     0.02800
C460        C  0.25801360  0.18751422  0.99317748    -0.12400
C461        C  0.25250952  0.18800182  0.94005873    -0.03400
C462        C  0.24869958  0.21464189  0.91557369     0.02100
C463        C  0.25942290  0.26565286  0.02682488     0.08900
N464        N  0.27071723  0.21072651  0.07531802     0.65300
H465        H  0.26131232  0.16750702  0.01324500     0.18200
N466        N  0.24206740  0.21659379  0.86188416     0.75700
H467        H  0.24912658  0.26011133  0.92516906     0.09700
C468        C  0.29551908  0.28621377  0.02647431     0.03400
C469        C  0.29202851  0.31224438  0.05138067    -0.05300
C470        C  0.25365214  0.31772300  0.07796246    -0.23700
C471        C  0.21828218  0.29686810  0.07934016     0.12600
C472        C  0.22146814  0.27106115  0.05404769    -0.12900
N473        N  0.33599159  0.28077943  0.00138444     0.64300
H474        H  0.31890599  0.32836458  0.04939758     0.12100
N475        N  0.17661636  0.30270578  0.10219387     0.60900
H476        H  0.19320143  0.25560655  0.05398502     0.08300
O477        O  0.27528734  0.22591471  0.83961491    -0.40500
O478        O  0.20099418  0.21321632  0.83756492    -0.39700
O479        O  0.24048706  0.19921803  0.09923070    -0.39700
O480        O  0.31098468  0.21768346  0.09831336    -0.37400
O481        O  0.13978549  0.31235258  0.07567699    -0.38300
O482        O  0.17413055  0.29411598  0.14630652    -0.34500
O483        O  0.34414814  0.29636413  0.96530098    -0.35900
O484        O  0.36630675  0.26236091  0.01871744    -0.40200
C485        C  0.76727731  0.22165390  0.51311938    -0.13900
C486        C  0.74214494  0.24499543  0.52870180     0.16500
C487        C  0.71617642  0.24161981  0.56994250     0.02800
C488        C  0.71633480  0.21512197  0.59438560    -0.12400
C489        C  0.73951354  0.19153641  0.57680708    -0.03400
C490        C  0.76554390  0.19509470  0.53611273     0.02100
C491        C  0.74474031  0.27248521  0.50143000     0.08900
N492        N  0.68690717  0.26407136  0.58516505     0.65300
H493        H  0.69489516  0.21231516  0.62449028     0.18200
N494        N  0.79016286  0.17176984  0.51734437     0.75700
H495        H  0.78786638  0.22394857  0.48218499     0.09700
C496        C  0.76108172  0.29762632  0.52672517     0.03400
C497        C  0.76607965  0.32237624  0.49898615    -0.05300
C498        C  0.75712249  0.32276800  0.44583767    -0.23700
C499        C  0.73914073  0.29785618  0.42078913     0.12600
C500        C  0.73292304  0.27316564  0.44864646    -0.12900
N501        N  0.77557880  0.29808136  0.58014700     0.64300
H502        H  0.77953658  0.34116480  0.51952233     0.12100
N503        N  0.72846520  0.29685127  0.36717249     0.60900
H504        H  0.71990943  0.25408641  0.42872221     0.08300
O505        O  0.83437889  0.16900062  0.53095726    -0.40500
O506        O  0.77040169  0.15795450  0.47983290    -0.39700
O507        O  0.65982927  0.27794534  0.55251853    -0.39700
O508        O  0.68361939  0.26774232  0.63121258    -0.37400
O509        O  0.76129869  0.29157494  0.34113869    -0.38300
O510        O  0.68556142  0.29600832  0.34677519    -0.34500
O511        O  0.80724189  0.28109772  0.60001845    -0.35900
O512        O  0.76166325  0.31786257  0.60640399    -0.40200
C513        C  0.54763261  0.39544466  0.29323384    -0.13900
C514        C  0.53185680  0.41965652  0.26490169     0.16500
C515        C  0.56227818  0.44364440  0.26773860     0.02800
C516        C  0.60723072  0.44267762  0.29754301    -0.12400
C517        C  0.62410478  0.41780618  0.32301156    -0.03400
C518        C  0.59339977  0.39409625  0.32104368     0.02100
C519        C  0.48293585  0.41979436  0.23471480     0.08900
N520        N  0.54954446  0.46860650  0.23834148     0.65300
H521        H  0.63046454  0.46084701  0.29753667     0.18200
N522        N  0.60831936  0.36821626  0.34631122     0.75700
H523        H  0.52447233  0.37729241  0.29360791     0.09700
C524        C  0.46511582  0.39631517  0.20475038     0.03400
C525        C  0.41746861  0.39616741  0.18136837    -0.05300
C526        C  0.38726763  0.41954296  0.18491145    -0.23700
C527        C  0.40556614  0.44341081  0.21303617     0.12600
C528        C  0.45238541  0.44307394  0.23839219    -0.12900
N529        N  0.49497869  0.37257899  0.19702129     0.64300
H530        H  0.40413245  0.37776820  0.15976249     0.12100
N531        N  0.37616651  0.46750306  0.21909402     0.60900
H532        H  0.46436072  0.46087871  0.26220905     0.08300
O533        O  0.61751940  0.34678284  0.32107244    -0.40500
O534        O  0.60631693  0.36569664  0.39281854    -0.39700
O535        O  0.55506085  0.49283886  0.25840371    -0.39700
O536        O  0.53753308  0.46665515  0.19133146    -0.37400
O537        O  0.35307291  0.46863184  0.25603669    -0.38300
O538        O  0.37971037  0.48944319  0.19292035    -0.34500
O539        O  0.48100742  0.34763446  0.20389537    -0.35900
O540        O  0.53332021  0.37635114  0.17889950    -0.40200
C541        C  0.93793098  0.36352490  0.23104665    -0.13900
C542        C  0.98184443  0.35748167  0.26027426     0.16500
C543        C  0.98287733  0.35321640  0.31259253     0.02800
C544        C  0.94120482  0.35667789  0.33493445    -0.12400
C545        C  0.89747968  0.36385269  0.30609105    -0.03400
C546        C  0.89601807  0.36644325  0.25313596     0.02100
C547        C  0.02683431  0.35965561  0.23701680     0.08900
N548        N  0.02625333  0.34559977  0.34366892     0.65300
H549        H  0.94343501  0.35422526  0.37532674     0.18200
N550        N  0.85273211  0.37315895  0.22118462     0.75700
H551        H  0.93642517  0.36721546  0.19100637     0.09700
C552        C  0.03355553  0.34545649  0.19190237     0.03400
C553        C  0.07468249  0.35101729  0.16907491    -0.05300
C554        C  0.11011367  0.36984964  0.19107478    -0.23700
C555        C  0.10297864  0.38386791  0.23628515     0.12600
C556        C  0.06182852  0.37876919  0.25825233    -0.12900
N557        N  0.99968797  0.32488294  0.16961184     0.64300
H558        H  0.07951869  0.34001126  0.13468031     0.12100
N559        N  0.13617644  0.40437256  0.25965633     0.60900
H560        H  0.05646048  0.39072530  0.29155080     0.08300
O561        O  0.84309477  0.39863941  0.20932178    -0.40500
O562        O  0.82780066  0.35348369  0.19915947    -0.39700
O563        O  0.04326644  0.36153962  0.37955159    -0.39700
O564        O  0.04481081  0.32158543  0.33857967    -0.37400
O565        O  0.13692000  0.42901351  0.24137934    -0.38300
O566        O  0.15844259  0.39950207  0.30289751    -0.34500
O567        O  0.98873313  0.32373717  0.12238188    -0.35900
O568        O  0.98339980  0.30640767  0.19672919    -0.40200
C569        C  0.73154267  0.73220080  0.94876904    -0.13900
C570        C  0.76121220  0.73908118  0.99373731     0.16500
C571        C  0.79634917  0.71947174  0.01359158     0.02800
C572        C  0.80172169  0.69389374  0.98836062    -0.12400
C573        C  0.77269306  0.68692899  0.94279255    -0.03400
C574        C  0.73703447  0.70650787  0.92323560     0.02100
C575        C  0.75440286  0.76642733  0.02008895     0.08900
N576        N  0.82767180  0.72547116  0.05894215     0.65300
H577        H  0.82940942  0.67949148  0.00477665     0.18200
N578        N  0.70512301  0.70038946  0.87851830     0.75700
H579        H  0.70360738  0.74676922  0.93358995     0.09700
C580        C  0.75593349  0.79260269  0.99503046     0.03400
C581        C  0.74653211  0.81785829  0.01939067    -0.05300
C582        C  0.73584896  0.81791050  0.06910319    -0.23700
C583        C  0.73539746  0.79179072  0.09479408     0.12600
C584        C  0.74469393  0.76637470  0.07022316    -0.12900
N585        N  0.76782619  0.79393799  0.94498236     0.64300
H586        H  0.74762370  0.83765842  0.99909096     0.12100
N587        N  0.72228075  0.79046218  0.14433089     0.60900
H588        H  0.74257713  0.74642048  0.08975633     0.08300
O589        O  0.71744952  0.70565377  0.83602273    -0.40500
O590        O  0.66219987  0.69448809  0.88169997    -0.39700
O591        O  0.82600250  0.71048498  0.09765381    -0.39700
O592        O  0.86070079  0.74338456  0.05854153    -0.37400
O593        O  0.67893279  0.79228390  0.15028060    -0.38300
O594        O  0.75304732  0.78389386  0.18119616    -0.34500
O595        O  0.73692480  0.80191843  0.90922446    -0.35900
O596        O  0.81075068  0.79134977  0.93785750    -0.40200
C597        C  0.77592434  0.53864321  0.64675718    -0.13900
C598        C  0.77803841  0.50920811  0.65671005     0.16500
C599        C  0.78463445  0.50002070  0.70720076     0.02800
C600        C  0.78803862  0.51993793  0.74613455    -0.12400
C601        C  0.78326400  0.54925569  0.73648597    -0.03400
C602        C  0.77837539  0.55865704  0.68619485     0.02100
C603        C  0.77522718  0.48826900  0.61452674     0.08900
N604        N  0.78494323  0.47045840  0.71968704     0.65300
H605        H  0.79190067  0.51220991  0.78451195     0.18200
N606        N  0.77372212  0.58817640  0.67447147     0.75700
H607        H  0.77211015  0.54610156  0.60826987     0.09700
C608        C  0.73751500  0.48871181  0.57423133     0.03400
C609        C  0.73753454  0.46972023  0.53394079    -0.05300
C610        C  0.77427915  0.44961265  0.53292103    -0.23700
C611        C  0.81059565  0.44814271  0.57478795     0.12600
C612        C  0.81119037  0.46765322  0.61443311    -0.12900
N613        N  0.69868495  0.50820644  0.57378270     0.64300
H614        H  0.70901496  0.47126108  0.50271090     0.12100
N615        N  0.84801260  0.42758149  0.57714141     0.60900
H616        H  0.84043078  0.46694362  0.64501090     0.08300
O617        O  0.73348299  0.59827851  0.65713252    -0.40500
O618        O  0.81058805  0.60324899  0.67502620    -0.39700
O619        O  0.81927949  0.46013231  0.74919560    -0.39700
O620        O  0.74829524  0.45556992  0.70654361    -0.37400
O621        O  0.88922734  0.43504945  0.56964391    -0.38300
O622        O  0.84138086  0.40284259  0.59277028    -0.34500
O623        O  0.69046065  0.52618762  0.53877317    -0.35900
O624        O  0.66889694  0.50490204  0.60420740    -0.40200
C625        C  0.79684515  0.49517722  0.18276803    -0.13900
C626        C  0.75093088  0.50431731  0.16198392     0.16500
C627        C  0.71089035  0.49007302  0.17645913     0.02800
C628        C  0.71750069  0.46744089  0.21084195    -0.12400
C629        C  0.76321441  0.45973532  0.23375996    -0.03400
C630        C  0.80321684  0.47389537  0.21973671     0.02100
C631        C  0.74587840  0.52671797  0.12184481     0.08900
N632        N  0.66321348  0.49936252  0.15912194     0.65300
H633        H  0.68672718  0.45750435  0.22288623     0.18200
N634        N  0.85057667  0.46721427  0.24305434     0.75700
H635        H  0.82787504  0.50488485  0.17103429     0.09700
C636        C  0.77396917  0.55173611  0.12532910     0.03400
C637        C  0.77425827  0.56928660  0.08278738    -0.05300
C638        C  0.74601346  0.56279924  0.03691968    -0.23700
C639        C  0.71423676  0.53951297  0.03541954     0.12600
C640        C  0.71560664  0.52139759  0.07684257    -0.12900
N641        N  0.80339468  0.55922726  0.17126659     0.64300
H642        H  0.79860802  0.58695559  0.08485451     0.12100
N643        N  0.68215982  0.53284468  0.99085669     0.60900
H644        H  0.69419090  0.50245521  0.07282713     0.08300
O645        O  0.88115741  0.45886853  0.21624536    -0.40500
O646        O  0.86429594  0.47512526  0.28770016    -0.39700
O647        O  0.63169845  0.48157975  0.14222007    -0.39700
O648        O  0.65135627  0.52478782  0.16570477    -0.37400
O649        O  0.68634809  0.50969040  0.96815019    -0.38300
O650        O  0.64651865  0.54856726  0.97753745    -0.34500
O651        O  0.84692130  0.56494621  0.17115550    -0.35900
O652        O  0.78495807  0.56266799  0.21108986    -0.40200
C653        C  0.93922895  0.50606982  0.01521478    -0.13900
C654        C  0.96889058  0.49542929  0.98204279     0.16500
C655        C  0.95390748  0.49662883  0.92950918     0.02800
C656        C  0.91101179  0.51062192  0.91133202    -0.12400
C657        C  0.88302039  0.52271854  0.94498927    -0.03400
C658        C  0.89634716  0.51916764  0.99724637     0.02100
C659        C  0.01512740  0.48344277  0.00457252     0.08900
N660        N  0.98166597  0.48386904  0.89461858     0.65300
H661        H  0.90057187  0.51309194  0.87115853     0.18200
N662        N  0.86717099  0.52971529  0.03265196     0.75700
H663        H  0.94992690  0.50468892  0.05556108     0.09700
C664        C  0.05918914  0.49523490  0.99623310     0.03400
C665        C  0.10176316  0.48412553  0.02190533    -0.05300
C666        C  0.10085516  0.46203081  0.05680244    -0.23700
C667        C  0.05639036  0.45118494  0.06654463     0.12600
C668        C  0.01437470  0.46151923  0.03951627    -0.12900
N669        N  0.06117507  0.51893295  0.96322300     0.64300
H670        H  0.13558224  0.49240240  0.01385717     0.12100
N671        N  0.05325330  0.42999254  0.10438880     0.60900
H672        H  0.98052771  0.45297406  0.04700342     0.08300
O673        O  0.88221672  0.54955540  0.06229485    -0.40500
O674        O  0.83030722  0.51617121  0.03980573    -0.39700
O675        O  0.99633594  0.45865238  0.90124545    -0.39700
O676        O  0.98739239  0.49663669  0.85452037    -0.37400
O677        O  0.07534561  0.43338186  0.14817953    -0.38300
O678        O  0.02440837  0.40958281  0.09587139    -0.34500
O679        O  0.04183291  0.54210716  0.97264535    -0.35900
O680        O  0.08797774  0.51807488  0.92935260    -0.40200
C681        C  0.27424832  0.72130233  0.50979087    -0.13900
C682        C  0.24032549  0.74213080  0.51687318     0.16500
C683        C  0.20914804  0.73732601  0.55271780     0.02800
C684        C  0.21180428  0.71178690  0.58018317    -0.12400
C685        C  0.24479916  0.69059812  0.57196013    -0.03400
C686        C  0.27623672  0.69556716  0.53645817     0.02100
C687        C  0.24072569  0.76965975  0.48963080     0.08900
N688        N  0.17348490  0.75777538  0.56022181     0.65300
H689        H  0.18630906  0.70786162  0.60598595     0.18200
N690        N  0.31008972  0.67445192  0.52678907     0.75700
H691        H  0.29899399  0.72495560  0.48309576     0.09700
C692        C  0.26968121  0.79195544  0.51074699     0.03400
C693        C  0.27095839  0.81761460  0.48482246    -0.05300
C694        C  0.24426850  0.82185622  0.43687231    -0.23700
C695        C  0.21499050  0.79944543  0.41562049     0.12600
C696        C  0.21331107  0.77361759  0.44214553    -0.12900
N697        N  0.29918107  0.78853262  0.55814262     0.64300
H698        H  0.29434011  0.83409257  0.50212849     0.12100
N699        N  0.18626629  0.80268101  0.36780214     0.60900
H700        H  0.19077006  0.75657985  0.42557385     0.08300
O701        O  0.35235885  0.67576600  0.54895681    -0.40500
O702        O  0.29969095  0.65700327  0.49125046    -0.39700
O703        O  0.13479159  0.75840495  0.53052912    -0.39700
O704        O  0.17759591  0.77217378  0.60028082    -0.37400
O705        O  0.20042893  0.79267148  0.32879792    -0.38300
O706        O  0.14432574  0.81219193  0.36545834    -0.34500
O707        O  0.33974510  0.77715170  0.55976937    -0.35900
O708        O  0.28800818  0.80068400  0.59680474    -0.40200
C709        C  0.21715618  0.46413129  0.88413860    -0.13900
C710        C  0.25713868  0.48173182  0.88357327     0.16500
C711        C  0.29424209  0.48039156  0.92437052     0.02800
C712        C  0.29023804  0.46236647  0.96522487    -0.12400
C713        C  0.24966007  0.44523734  0.96670383    -0.03400
C714        C  0.21309811  0.44602485  0.92494403     0.02100
C715        C  0.25844645  0.50212568  0.84111145     0.08900
N716        N  0.33629014  0.49724094  0.92487933     0.65300
H717        H  0.31883147  0.46229276  0.99653925     0.18200
N718        N  0.17028226  0.42994112  0.92444457     0.75700
H719        H  0.18802507  0.46517385  0.85343848     0.09700
C720        C  0.25201120  0.49267055  0.79080675     0.03400
C721        C  0.24997918  0.51229671  0.75139104    -0.05300
C722        C  0.25518179  0.54168784  0.76049641    -0.23700
C723        C  0.26194153  0.55118716  0.81098955     0.12600
C724        C  0.26333628  0.53146140  0.85065111    -0.12900
N725        N  0.24899308  0.46302853  0.77911554     0.64300
H726        H  0.24542983  0.50420275  0.71323820     0.12100
N727        N  0.26593498  0.58074223  0.82270484     0.60900
H728        H  0.26728841  0.53914700  0.88904565     0.08300
O729        O  0.16512167  0.40707667  0.89978159    -0.40500
O730        O  0.13494551  0.44079551  0.94136660    -0.39700
O731        O  0.34743811  0.51511092  0.95959239    -0.39700
O732        O  0.36456799  0.49244625  0.89336961    -0.37400
O733        O  0.22882125  0.59529095  0.82488890    -0.38300
O734        O  0.30640982  0.59150900  0.83656400    -0.34500
O735        O  0.21293340  0.45336686  0.75138044    -0.35900
O736        O  0.28446160  0.44709124  0.79199231    -0.40200
C737        C  0.28886877  0.53331799  0.41191925    -0.13900
C738        C  0.24574105  0.52875567  0.38044489     0.16500
C739        C  0.20486157  0.54423904  0.38885927     0.02800
C740        C  0.20781521  0.56351265  0.42898044    -0.12400
C741        C  0.25016330  0.56670343  0.46284942    -0.03400
C742        C  0.29143863  0.55199282  0.45289659     0.02100
C743        C  0.24423960  0.50782573  0.33890460     0.08900
N744        N  0.15929120  0.53896206  0.35971454     0.65300
H745        H  0.17540218  0.57402437  0.43624536     0.18200
N746        N  0.33584158  0.55489208  0.48498914     0.75700
H747        H  0.32060803  0.52188562  0.40513746     0.09700
C748        C  0.23116404  0.51590820  0.28834949     0.03400
C749        C  0.22831553  0.49530916  0.25052280    -0.05300
C750        C  0.24056064  0.46669476  0.26125771    -0.23700
C751        C  0.25447783  0.45874757  0.31214590     0.12600
C752        C  0.25536151  0.47930062  0.35029671    -0.12900
N753        N  0.22286582  0.54510596  0.27454484     0.64300
H754        H  0.21846208  0.50222387  0.21199070     0.12100
N755        N  0.26865577  0.43031836  0.32608849     0.60900
H756        H  0.26557842  0.47305763  0.38916587     0.08300
O757        O  0.36365665  0.57485833  0.47749952    -0.40500
O758        O  0.35089834  0.53480286  0.51405936    -0.39700
O759        O  0.14304027  0.51400570  0.35566263    -0.39700
O760        O  0.13249266  0.55947086  0.34415779    -0.37400
O761        O  0.30731414  0.42070340  0.31446445    -0.38300
O762        O  0.24955835  0.41786574  0.35984075    -0.34500
O763        O  0.25364987  0.56365139  0.28983024    -0.35900
O764        O  0.18805389  0.55181692  0.24198662    -0.40200
C765        C  0.47158389  0.57554483  0.70604554    -0.13900
C766        C  0.48258487  0.59506584  0.74556385     0.19700
C767        C  0.44846448  0.61540483  0.75472176     0.02800
C768        C  0.40442662  0.61634213  0.72395591    -0.12400
C769        C  0.39285393  0.59672355  0.68455892    -0.03400
C770        C  0.42702721  0.57620746  0.67555248     0.02100
C771        C  0.53155852  0.59620675  0.77321798     0.08900
N772        N  0.45740581  0.63442749  0.79659806     0.65300
H773        H  0.37821610  0.63165832  0.73272264     0.18200
N774        N  0.41796251  0.55696638  0.63412433     0.75700
H775        H  0.49821871  0.56033934  0.69792701     0.09700
C776        C  0.55106865  0.57367409  0.80372481     0.03400
C777        C  0.59884340  0.57477699  0.82595829    -0.05300
C778        C  0.62808902  0.59802009  0.81793696    -0.23700
C779        C  0.60786733  0.62089675  0.78768806     0.12600
C780        C  0.55987998  0.61981945  0.76637073    -0.12900
N781        N  0.52266525  0.54962382  0.81259066     0.64300
H782        H  0.61332394  0.55699719  0.84873171     0.12100
N783        N  0.63524423  0.64512804  0.77696424     0.60900
H784        H  0.54504319  0.63712127  0.74254967     0.08300
O785        O  0.41800544  0.53055887  0.64194436    -0.40500
O786        O  0.41697551  0.56613783  0.58978768    -0.39700
O787        O  0.45486386  0.66089897  0.78959144    -0.39700
O788        O  0.46266800  0.62475912  0.84092425    -0.37400
O789        O  0.66323526  0.64302375  0.74436810    -0.38300
O790        O  0.62155950  0.66950135  0.78832061    -0.34500
O791        O  0.53400563  0.52525222  0.79866923    -0.35900
O792        O  0.48905188  0.55230564  0.83862173    -0.40200
C793        C  0.03371486  0.64283777  0.70797712    -0.13900
C794        C  0.04335934  0.64144854  0.76088671     0.16500
C795        C  0.09106651  0.63880535  0.78370030     0.02800
C796        C  0.12756659  0.63625658  0.75380503    -0.12400
C797        C  0.11802786  0.63644991  0.70081005    -0.03400
C798        C  0.07051717  0.64059908  0.67794247     0.02100
C799        C  0.00314926  0.63934603  0.79123052     0.08900
N800        N  0.10308330  0.63839485  0.83734423     0.65300
H801        H  0.16363905  0.63375455  0.77251637     0.18200
N802        N  0.05860546  0.64137161  0.62440642     0.75700
H803        H  0.99730979  0.64443252  0.68977732     0.09700
C804        C  0.96505407  0.65892474  0.78573315     0.03400
C805        C  0.92514619  0.65416162  0.81033603    -0.05300
C806        C  0.92264892  0.63036386  0.84152500    -0.23700
C807        C  0.96144958  0.61126683  0.84817464     0.12600
C808        C  0.00091995  0.61575895  0.82290349    -0.12900
N809        N  0.96650295  0.68383319  0.75553160     0.64300
H810        H  0.89591346  0.66914970  0.80492219     0.12100
N811        N  0.95954095  0.58583350  0.87672486     0.60900
H812        H  0.02904521  0.60004192  0.82639593     0.08300
O813        O  0.05532297  0.66491769  0.60178312    -0.40500
O814        O  0.04613040  0.61891929  0.60048573    -0.39700
O815        O  0.12533012  0.61747953  0.85867048    -0.39700
O816        O  0.09688918  0.66035443  0.86263657    -0.37400
O817        O  0.94402258  0.56331224  0.85489487    -0.38300
O818        O  0.97917000  0.58495465  0.92190374    -0.34500
O819        O  0.93470002  0.68797878  0.71836044    -0.35900
O820        O  0.99616762  0.70320404  0.76944912    -0.40200
C821        C  0.95315308  0.50539408  0.47721971    -0.13900
C822        C  0.99764486  0.49478030  0.46833955     0.16500
C823        C  0.99938529  0.47007006  0.43908257     0.02800
C824        C  0.95696312  0.45620208  0.42016325    -0.12400
C825        C  0.91236649  0.46676298  0.42918046    -0.03400
C826        C  0.91072599  0.49189759  0.45750689     0.02100
C827        C  0.04147116  0.50942485  0.49189362     0.08900
N828        N  0.04381904  0.45898612  0.42789988     0.65300
H829        H  0.95899115  0.43694706  0.39842435     0.18200
N830        N  0.86660542  0.50309014  0.46920899     0.75700
H831        H  0.95136590  0.52404729  0.50054049     0.09700
C832        C  0.04621847  0.53892657  0.48608405     0.03400
C833        C  0.08341903  0.55328393  0.51489511    -0.05300
C834        C  0.11774723  0.53871692  0.54819463    -0.23700
C835        C  0.11476565  0.50900689  0.55215006     0.12600
C836        C  0.07623848  0.49458754  0.52458763    -0.12900
N837        N  0.01404247  0.55448555  0.45013302     0.64300
H838        H  0.08641212  0.57597905  0.50979238     0.12100
N839        N  0.14908907  0.49348078  0.58562934     0.60900
H840        H  0.07266339  0.47196745  0.52990255     0.08300
O841        O  0.85444695  0.49884243  0.51210498    -0.40500
O842        O  0.84263963  0.51991371  0.43897283    -0.39700
O843        O  0.05594356  0.43388866  0.44023477    -0.39700
O844        O  0.06836499  0.47310641  0.40087608    -0.37400
O845        O  0.14452056  0.49153826  0.63165585    -0.38300
O846        O  0.18096027  0.47925506  0.56833972    -0.34500
O847        O  0.99301332  0.57622320  0.46369215    -0.35900
O848        O  0.01051467  0.54827556  0.40395952    -0.40200
loop_ 
_geom_bond_atom_site_label_1 
_geom_bond_atom_site_label_2 
_geom_bond_distance 
_geom_bond_site_symmetry_2 
_ccdc_geom_bond_type 
O1           C16   1.268       .  A
O1           Al9   1.946       .  S
C2           O12   1.268       .  A
C2            O3   1.255       .  A
C2          C797   1.490       .  S
O3           Al5   1.863       .  S
O4            C6   1.275       .  A
O4           Al5   1.969       .  S
Al5          O13   1.970       .  S
Al5          O15   1.878       .  S
Al5          O14   1.771       .  S
C6           O19   1.260       .  A
C6          C722   1.496       .  S
O7           C17   1.268       .  A
O7           Al9   1.951       .  S
O8           C21   1.270       .  A
O8          Al18   1.935       .  S
Al9          O22   1.896       .  S
Al9          O19   1.873       .  S
Al9          O14   1.780       .  S
O10          C17   1.257       .  A
O10         Al18   1.872       .  S
O11          C20   1.256       .  A
O11         Al18   1.875       .  S
O12         Al18   1.949       .  S
O13          C20   1.273       .  A
O14         Al18   1.770       .  S
O15          C16   1.258       .  A
C16         C769   1.482       .  S
C17         C834   1.473       .  S
C20         C685   1.481       .  S
C21          O22   1.264       .  A
C21         C741   1.488       .  S
O23          C38   1.264       .  A
O23         Al31   1.901       .  S
C24          O34   1.262       .  A
C24          O25   1.260       .  A
C24         C806   1.486       .  S
O25         Al27   1.905       .  S
O26          C28   1.266       .  A
O26         Al27   1.947       .  S
Al27         O35   1.941       .  S
Al27         O37   1.903       .  S
Al27         O36   1.795       .  S
C28          O41   1.253       .  A
C28         C601   1.487       .  S
O29          C39   1.262       .  A
O29         Al31   1.921       .  S
O30          C43   1.268       .  A
O30         Al40   1.935       .  S
Al31         O44   1.874       .  S
Al31         O41   1.866       .  S
Al31         O36   1.787       .  S
O32          C39   1.254       .  A
O32         Al40   1.864       .  S
O33          C42   1.257       .  A
O33         Al40   1.881       .  S
O34         Al40   1.908       .  S
O35          C42   1.268       .  A
O36         Al40   1.789       .  S
O37          C38   1.260       .  A
C38         C778   1.487       .  S
C39         C657   1.464       .  S
C42         C573   1.500       .  S
C43          O44   1.255       .  A
C43         C638   1.489   1_556  S
O45          C60   1.263       .  A
O45         Al53   1.889       .  S
C46          O56   1.256       .  A
C46          O47   1.267       .  A
C46         C545   1.497       .  S
O47         Al49   1.941       .  S
O48          C50   1.256       .  A
O48         Al49   1.873       .  S
Al49         O57   1.862       .  S
Al49         O59   1.949       .  S
Al49         O58   1.771       .  S
C50          O63   1.268       .  A
C50         C825   1.479       .  S
O51          C61   1.255       .  A
O51         Al53   1.866       .  S
O52          C65   1.259       .  A
O52         Al62   1.892       .  S
Al53         O66   1.945       .  S
Al53         O63   1.944       .  S
Al53         O58   1.771       .  S
O54          C61   1.274       .  A
O54         Al62   1.968       .  S
O55          C64   1.275       .  A
O55         Al62   1.972       .  S
O56         Al62   1.886       .  S
O57          C64   1.257       .  A
O58         Al62   1.774       .  S
O59          C60   1.270       .  A
C60         C610   1.492       .  S
C61         C629   1.474       .  S
C64         C498   1.498       .  S
C65          O66   1.269       .  A
C65         C517   1.491       .  S
O67          C82   1.260       .  A
O67         Al75   1.884       .  S
C68          O78   1.257       .  A
C68          O69   1.272       .  A
C68         C554   1.495       .  S
O69         Al71   1.962       .  S
O70          C72   1.251       .  A
O70         Al71   1.842       .  S
Al71         O79   1.876       .  S
Al71         O81   1.956       .  S
Al71         O80   1.771       .  S
C72          O85   1.270       .  A
C72         C666   1.472       .  S
O73          C83   1.257       .  A
O73         Al75   1.868       .  S
O74          C87   1.264       .  A
O74         Al84   1.895       .  S
Al75         O88   1.951       .  S
Al75         O85   1.958       .  S
Al75         O80   1.770       .  S
O76          C83   1.269       .  A
O76         Al84   1.954       .  S
O77          C86   1.271       .  A
O77         Al84   1.961       .  S
O78         Al84   1.874       .  S
O79          C86   1.256       .  A
O80         Al84   1.774       .  S
O81          C82   1.271       .  A
C82         C713   1.495   1_554  S
C83         C750   1.491       .  S
C86         C470   1.472       .  S
C87          O88   1.271       .  A
C87         C526   1.488       .  S
O89         C104   1.263       .  A
O89         Al97   1.897       .  S
C90         O100   1.256       .  A
C90          O91   1.268       .  A
C90         C405   1.491       .  S
O91         Al93   1.945       .  S
O92          C94   1.254       .  A
O92         Al93   1.865       .  S
Al93        O101   1.870       .  S
Al93        O103   1.955       .  S
Al93        O102   1.770       .  S
C94         O107   1.268       .  A
C94         C321   1.474       .  S
O95         C105   1.258       .  A
O95         Al97   1.867       .  S
O96         C109   1.260       .  A
O96        Al106   1.891       .  S
Al97        O110   1.934       .  S
Al97        O107   1.942       .  S
Al97        O102   1.773       .  S
O98         C105   1.273       .  A
O98        Al106   1.967       .  S
O99         C108   1.274       .  A
O99        Al106   1.966       .  S
O100       Al106   1.880       .  S
O101        C108   1.259       .  A
O102       Al106   1.775       .  S
O103        C104   1.270       .  A
C104        C358   1.498   1_554  S
C105        C386   1.497       .  S
C108        C582   1.488       .  S
C109        O110   1.267       .  A
C109        C442   1.479       .  S
O111        C126   1.260       .  A
O111       Al119   1.876       .  S
C112        O122   1.256       .  A
C112        O113   1.268       .  A
C112        C414   1.492       .  S
O113       Al115   1.942       .  S
O114        C116   1.255       .  A
O114       Al115   1.874       .  S
Al115       O123   1.864       .  S
Al115       O125   1.959       .  S
Al115       O124   1.769       .  S
C116        O129   1.269       .  A
C116        C237   1.476       .  S
O117        C127   1.254       .  A
O117       Al119   1.850       .  S
O118        C131   1.261       .  A
O118       Al128   1.893       .  S
Al119       O132   1.938       .  S
Al119       O129   1.945       .  S
Al119       O124   1.764       .  S
O120        C127   1.277       .  A
O120       Al128   1.982       .  S
O121        C130   1.278       .  A
O121       Al128   1.985       .  S
O122       Al128   1.878       .  S
O123        C130   1.258       .  A
O124       Al128   1.773       .  S
O125        C126   1.271       .  A
C126        C265   1.489       .  S
C127        C293   1.486       .  S
C130        C694   1.499       .  S
C131        O132   1.267       .  A
C131        C433   1.486       .  S
O133        C148   1.262       .  A
O133       Al141   1.906       .  S
C134        O144   1.263       .  A
C134        O135   1.257       .  A
C134        C181   1.476       .  S
O135       Al137   1.886       .  S
O136        C138   1.274       .  A
O136       Al137   1.966       .  S
Al137       O145   1.970       .  S
Al137       O147   1.907       .  S
Al137       O146   1.779       .  S
C138        O151   1.257       .  A
C138        C274   1.475       .  S
O139        C149   1.264       .  A
O139       Al141   1.926       .  S
O140        C153   1.268       .  A
O140       Al150   1.940       .  S
Al141       O154   1.885       .  S
Al141       O151   1.855       .  S
Al141       O146   1.772       .  S
O142        C149   1.257       .  A
O142       Al150   1.879       .  S
O143        C152   1.258       .  A
O143       Al150   1.862       .  S
O144       Al150   1.922       .  S
O145        C152   1.275       .  A
O146       Al150   1.770       .  S
O147        C148   1.262       .  A
C148        C209   1.479       .  S
C149        C330   1.472       .  S
C152        C461   1.494       .  S
C153        O154   1.260       .  A
C153        C302   1.487   1_556  S
O155        C170   1.269       .  A
O155       Al163   1.937       .  S
C156        O166   1.266       .  A
C156        O157   1.260       .  A
C156        C190   1.476       .  S
O157       Al159   1.884       .  S
O158        C160   1.271       .  A
O158       Al159   1.966       .  S
Al159       O167   1.963       .  S
Al159       O169   1.883       .  S
Al159       O168   1.778       .  S
C160        O173   1.259       .  A
C160        C349   1.501       .  S
O161        C171   1.269       .  A
O161       Al163   1.941       .  S
O162        C175   1.264       .  A
O162       Al172   1.924       .  S
Al163       O176   1.903       .  S
Al163       O173   1.881       .  S
Al163       O168   1.776       .  S
O164        C171   1.258       .  A
O164       Al172   1.871       .  S
O165        C174   1.259       .  A
O165       Al172   1.881       .  S
O166       Al172   1.934       .  S
O167        C174   1.272       .  A
O168       Al172   1.772       .  S
O169        C170   1.260       .  A
C170        C218   1.476       .  S
C171        C246   1.476       .  S
C174        C489   1.481       .  S
C175        O176   1.261       .  A
C175        C377   1.489       .  S
C177        C178   1.405       .  A
C177        C182   1.405       .  A
C177        H187   1.082       .  S
C178        C183   1.487       .  S
C178        C179   1.412       .  A
C179        C180   1.397       .  A
C179        N184   1.431       .  S
C180        C181   1.401       .  A
C180        H185   1.083       .  S
C181        C182   1.412       .  A
C182        N186   1.432       .  S
C183        C188   1.411       .  A
C183        C192   1.405       .  A
N184        O199   1.262       .  A
N184        O200   1.262       .  A
N186        O197   1.262       .  A
N186        O198   1.262       .  A
C188        C189   1.402       .  A
C188        N193   1.429       .  S
C189        C190   1.404       .  A
C189        H194   1.082       .  S
C190        C191   1.409       .  A
C191        C192   1.399       .  A
C191        N195   1.430       .  S
C192        H196   1.082       .  S
N193        O203   1.262       .  A
N193        O204   1.262       .  A
N195        O201   1.262       .  A
N195        O202   1.262       .  A
C205        C206   1.406       .  A
C205        C210   1.403       .  A
C205        H215   1.083       .  S
C206        C211   1.485   1_455  S
C206        C207   1.412       .  A
C207        C208   1.398       .  A
C207        N212   1.435       .  S
C208        C209   1.405       .  A
C208        H213   1.083       .  S
C209        C210   1.409       .  A
C210        N214   1.429       .  S
C211        C216   1.415       .  A
C211        C220   1.402       .  A
N212        O227   1.262       .  A
N212        O228   1.262       .  A
N214        O225   1.262       .  A
N214        O226   1.262       .  A
C216        C217   1.403       .  A
C216        N221   1.436       .  S
C217        C218   1.403       .  A
C217        H222   1.083       .  S
C218        C219   1.409       .  A
C219        C220   1.398       .  A
C219        N223   1.428       .  S
C220        H224   1.084       .  S
N221        O231   1.262       .  A
N221        O232   1.262       .  A
N223        O229   1.262       .  A
N223        O230   1.261       .  A
C233        C234   1.402       .  A
C233        C238   1.399       .  A
C233        H243   1.082       .  S
C234        C239   1.480   1_565  S
C234        C235   1.411   1_565  A
C235        C236   1.397   1_545  A
C235        N240   1.431       .  S
C236        C237   1.403       .  A
C236        H241   1.083       .  S
C237        C238   1.415       .  A
C238        N242   1.431       .  S
C239        C244   1.412   1_545  A
C239        C248   1.400       .  A
N240        O255   1.262       .  A
N240        O256   1.262       .  A
N242        O253   1.262       .  A
N242        O254   1.262       .  A
C244        C245   1.402   1_565  A
C244        N249   1.430       .  S
C245        C246   1.403       .  A
C245        H250   1.082       .  S
C246        C247   1.415       .  A
C247        C248   1.393       .  A
C247        N251   1.431       .  S
C248        H252   1.082       .  S
N249        O259   1.262       .  A
N249        O260   1.262       .  A
N251        O257   1.262       .  A
N251        O258   1.262       .  A
C261        C262   1.405       .  A
C261        C266   1.405       .  A
C261        H271   1.083       .  S
C262        C267   1.481   1_565  S
C262        C263   1.401       .  A
C263        C264   1.396       .  A
C263        N268   1.428   1_565  S
C264        C265   1.411       .  A
C264        H269   1.082       .  S
C265        C266   1.415       .  A
C266        N270   1.430       .  S
C267        C272   1.404       .  A
C267        C276   1.408       .  A
N268        O283   1.262       .  A
N268        O284   1.261       .  A
N270        O281   1.262       .  A
N270        O282   1.262       .  A
C272        C273   1.395       .  A
C272        N277   1.430   1_545  S
C273        C274   1.406       .  A
C273        H278   1.084       .  S
C274        C275   1.407       .  A
C275        C276   1.407       .  A
C275        N279   1.429       .  S
C276        H280   1.083       .  S
N277        O287   1.262       .  A
N277        O288   1.262       .  A
N279        O285   1.262       .  A
N279        O286   1.262       .  A
C289        C290   1.394   1_545  A
C289        C294   1.392   1_545  A
C289        H299   1.084       .  S
C290        C295   1.480   1_565  S
C290        C291   1.413       .  A
C291        C292   1.408       .  A
C291        N296   1.430       .  S
C292        C293   1.404       .  A
C292        H297   1.083       .  S
C293        C294   1.422       .  A
C294        N298   1.431   1_565  S
C295        C300   1.407       .  A
C295        C304   1.402       .  A
N296        O311   1.262       .  A
N296        O312   1.262       .  A
N298        O309   1.262       .  A
N298        O310   1.262       .  A
C300        C301   1.401       .  A
C300        N305   1.433       .  S
C301        C302   1.409       .  A
C301        H306   1.083   1_554  S
C302        C303   1.417       .  A
C303        C304   1.401       .  A
C303        N307   1.432       .  S
C304        H308   1.084       .  S
N305        O315   1.262       .  A
N305        O316   1.262   1_545  A
N307        O313   1.262       .  A
N307        O314   1.262       .  A
C317        C318   1.400       .  A
C317        C322   1.388       .  A
C317        H327   1.084   1_554  S
C318        C323   1.481   1_564  S
C318        C319   1.416   1_565  A
C319        C320   1.404   1_545  A
C319        N324   1.435       .  S
C320        C321   1.403       .  A
C320        H325   1.083   1_565  S
C321        C322   1.415       .  A
C322        N326   1.430       .  S
C323        C328   1.414       .  A
C323        C332   1.403       .  A
N324        O339   1.262       .  A
N324        O340   1.263       .  A
N326        O337   1.262   1_554  A
N326        O338   1.262       .  A
C328        C329   1.401       .  A
C328        N333   1.436       .  S
C329        C330   1.405       .  A
C329        H334   1.083       .  S
C330        C331   1.411       .  A
C331        C332   1.393       .  A
C331        N335   1.432       .  S
C332        H336   1.083   1_546  S
N333        O343   1.262       .  A
N333        O344   1.263       .  A
N335        O341   1.262   1_545  A
N335        O342   1.261   1_556  A
C345        C346   1.407       .  A
C345        C350   1.410       .  A
C345        H355   1.083       .  S
C346        C351   1.496   1_545  S
C346        C347   1.408   1_545  A
C347        C348   1.402   1_565  A
C347        N352   1.431       .  S
C348        C349   1.411       .  A
C348        H353   1.083       .  S
C349        C350   1.415       .  A
C350        N354   1.428       .  S
C351        C356   1.409       .  A
C351        C360   1.403       .  A
N352        O367   1.262       .  A
N352        O368   1.262       .  A
N354        O365   1.262       .  A
N354        O366   1.262       .  A
C356        C357   1.406       .  A
C356        N361   1.428       .  S
C357        C358   1.410       .  A
C357        H362   1.082       .  S
C358        C359   1.419       .  A
C359        C360   1.406       .  A
C359        N363   1.430       .  S
C360        H364   1.083       .  S
N361        O371   1.262   1_565  A
N361        O372   1.262       .  A
N363        O369   1.262       .  A
N363        O370   1.262       .  A
C373        C374   1.406       .  A
C373        C378   1.405       .  A
C373        H383   1.082       .  S
C374        C379   1.493       .  S
C374        C375   1.414       .  A
C375        C376   1.402       .  A
C375        N380   1.437       .  S
C376        C377   1.407       .  A
C376        H381   1.080       .  S
C377        C378   1.411       .  A
C378        N382   1.428       .  S
C379        C384   1.412       .  A
C379        C388   1.407   1_545  A
N380        O395   1.262       .  A
N380        O396   1.263       .  A
N382        O393   1.262       .  A
N382        O394   1.262       .  A
C384        C385   1.399   1_545  A
C384        N389   1.436       .  S
C385        C386   1.411       .  A
C385        H390   1.083       .  S
C386        C387   1.415       .  A
C387        C388   1.409       .  A
C387        N391   1.430       .  S
C388        H392   1.084       .  S
N389        O399   1.262       .  A
N389        O400   1.263       .  A
N391        O397   1.262       .  A
N391        O398   1.262       .  A
C401        C402   1.401       .  A
C401        C406   1.400       .  A
C401        H411   1.083       .  S
C402        C407   1.491       .  S
C402        C403   1.412       .  A
C403        C404   1.407       .  A
C403        N408   1.430       .  S
C404        C405   1.407       .  A
C404        H409   1.082       .  S
C405        C406   1.419       .  A
C406        N410   1.432       .  S
C407        C412   1.412       .  A
C407        C416   1.402       .  A
N408        O423   1.262       .  A
N408        O424   1.262       .  A
N410        O421   1.262       .  A
N410        O422   1.262       .  A
C412        C413   1.404       .  A
C412        N417   1.430       .  S
C413        C414   1.406       .  A
C413        H418   1.082       .  S
C414        C415   1.419       .  A
C415        C416   1.401       .  A
C415        N419   1.430       .  S
C416        H420   1.083       .  S
N417        O427   1.262       .  A
N417        O428   1.262       .  A
N419        O425   1.262       .  A
N419        O426   1.262       .  A
C429        C430   1.403       .  A
C429        C434   1.400       .  A
C429        H439   1.082       .  S
C430        C435   1.492   1_455  S
C430        C431   1.413       .  A
C431        C432   1.404       .  A
C431        N436   1.431   1_455  S
C432        C433   1.405       .  A
C432        H437   1.082       .  S
C433        C434   1.414       .  A
C434        N438   1.428       .  S
C435        C440   1.413       .  A
C435        C444   1.407       .  A
N436        O451   1.262   1_655  A
N436        O452   1.262       .  A
N438        O449   1.262       .  A
N438        O450   1.262       .  A
C440        C441   1.401       .  A
C440        N445   1.432       .  S
C441        C442   1.404       .  A
C441        H446   1.082       .  S
C442        C443   1.410       .  A
C443        C444   1.403       .  A
C443        N447   1.430       .  S
C444        H448   1.081       .  S
N445        O455   1.262       .  A
N445        O456   1.262       .  A
N447        O453   1.262       .  A
N447        O454   1.262       .  A
C457        C458   1.406       .  A
C457        C462   1.409       .  A
C457        H467   1.083       .  S
C458        C463   1.486   1_556  S
C458        C459   1.404   1_556  A
C459        C460   1.398   1_554  A
C459        N464   1.430       .  S
C460        C461   1.411       .  A
C460        H465   1.083   1_556  S
C461        C462   1.414       .  A
C462        N466   1.429       .  S
C463        C468   1.410       .  A
C463        C472   1.403       .  A
N464        O479   1.262       .  A
N464        O480   1.262       .  A
N466        O477   1.262       .  A
N466        O478   1.262       .  A
C468        C469   1.406       .  A
C468        N473   1.430       .  S
C469        C470   1.403       .  A
C469        H474   1.083       .  S
C470        C471   1.408       .  A
C471        C472   1.401       .  A
C471        N475   1.429       .  S
C472        H476   1.083       .  S
N473        O483   1.262   1_554  A
N473        O484   1.262       .  A
N475        O481   1.262       .  A
N475        O482   1.261       .  A
C485        C486   1.403       .  A
C485        C490   1.399       .  A
C485        H495   1.083       .  S
C486        C491   1.495       .  S
C486        C487   1.419       .  A
C487        C488   1.410       .  A
C487        N492   1.436       .  S
C488        C489   1.404       .  A
C488        H493   1.083       .  S
C489        C490   1.409       .  A
C490        N494   1.428       .  S
C491        C496   1.411       .  A
C491        C500   1.409       .  A
N492        O507   1.262       .  A
N492        O508   1.263       .  A
N494        O505   1.261       .  A
N494        O506   1.262       .  A
C496        C497   1.401       .  A
C496        N501   1.434       .  S
C497        C498   1.412       .  A
C497        H502   1.083       .  S
C498        C499   1.412       .  A
C499        C500   1.407       .  A
C499        N503   1.428       .  S
C500        H504   1.084       .  S
N501        O511   1.262       .  A
N501        O512   1.263       .  A
N503        O509   1.262       .  A
N503        O510   1.262       .  A
C513        C514   1.408       .  A
C513        C518   1.404       .  A
C513        H523   1.079       .  S
C514        C519   1.504       .  S
C514        C515   1.418       .  A
C515        C516   1.406       .  A
C515        N520   1.434       .  S
C516        C517   1.406       .  A
C516        H521   1.080       .  S
C517        C518   1.413       .  A
C518        N522   1.430       .  S
C519        C524   1.418       .  A
C519        C528   1.407       .  A
N520        O535   1.262       .  A
N520        O536   1.262       .  A
N522        O533   1.262       .  A
N522        O534   1.262       .  A
C524        C525   1.406       .  A
C524        N529   1.433       .  S
C525        C526   1.404       .  A
C525        H530   1.081       .  S
C526        C527   1.412       .  A
C527        C528   1.403       .  A
C527        N531   1.429       .  S
C528        H532   1.080       .  S
N529        O539   1.262       .  A
N529        O540   1.262       .  A
N531        O537   1.261       .  A
N531        O538   1.262       .  A
C541        C542   1.403       .  A
C541        C546   1.404       .  A
C541        H551   1.083       .  S
C542        C547   1.498   1_655  S
C542        C543   1.413       .  A
C543        C544   1.405       .  A
C543        N548   1.430   1_655  S
C544        C545   1.406       .  A
C544        H549   1.082       .  S
C545        C546   1.420       .  A
C546        N550   1.429       .  S
C547        C552   1.417       .  A
C547        C556   1.401       .  A
N548        O563   1.262       .  A
N548        O564   1.262       .  A
N550        O561   1.262       .  A
N550        O562   1.262       .  A
C552        C553   1.414       .  A
C552        N557   1.435   1_455  S
C553        C554   1.407       .  A
C553        H558   1.083       .  S
C554        C555   1.419       .  A
C555        C556   1.398       .  A
C555        N559   1.431       .  S
C556        H560   1.083       .  S
N557        O567   1.262       .  A
N557        O568   1.263       .  A
N559        O565   1.262       .  A
N559        O566   1.261       .  A
C569        C570   1.408       .  A
C569        C574   1.409       .  A
C569        H579   1.082       .  S
C570        C575   1.494   1_556  S
C570        C571   1.406   1_556  A
C571        C572   1.400   1_554  A
C571        N576   1.430       .  S
C572        C573   1.413       .  A
C572        H577   1.082   1_556  S
C573        C574   1.413       .  A
C574        N578   1.427       .  S
C575        C580   1.408   1_554  A
C575        C584   1.409       .  A
N576        O591   1.262       .  A
N576        O592   1.262       .  A
N578        O589   1.262       .  A
N578        O590   1.261       .  A
C580        C581   1.400   1_556  A
C580        N585   1.429       .  S
C581        C582   1.407       .  A
C581        H586   1.083   1_554  S
C582        C583   1.412       .  A
C583        C584   1.408       .  A
C583        N587   1.429       .  S
C584        H588   1.082       .  S
N585        O595   1.262       .  A
N585        O596   1.262       .  A
N587        O593   1.262       .  A
N587        O594   1.262       .  A
C597        C598   1.412       .  A
C597        C602   1.411       .  A
C597        H607   1.081       .  S
C598        C603   1.494       .  S
C598        C599   1.409       .  A
C599        C600   1.396       .  A
C599        N604   1.432       .  S
C600        C601   1.408       .  A
C600        H605   1.083       .  S
C601        C602   1.408       .  A
C602        N606   1.428       .  S
C603        C608   1.410       .  A
C603        C612   1.406       .  A
N604        O619   1.262       .  A
N604        O620   1.262       .  A
N606        O617   1.262       .  A
N606        O618   1.262       .  A
C608        C609   1.402       .  A
C608        N613   1.430       .  S
C609        C610   1.409       .  A
C609        H614   1.082       .  S
C610        C611   1.415       .  A
C611        C612   1.403       .  A
C611        N615   1.429       .  S
C612        H616   1.082       .  S
N613        O623   1.262       .  A
N613        O624   1.262       .  A
N615        O621   1.262       .  A
N615        O622   1.262       .  A
C625        C626   1.408       .  A
C625        C630   1.404       .  A
C625        H635   1.076       .  S
C626        C631   1.500       .  S
C626        C627   1.418       .  A
C627        C628   1.405       .  A
C627        N632   1.433       .  S
C628        C629   1.401       .  A
C628        H633   1.078       .  S
C629        C630   1.411       .  A
C630        N634   1.433       .  S
C631        C636   1.419       .  A
C631        C640   1.402       .  A
N632        O647   1.262       .  A
N632        O648   1.262       .  A
N634        O645   1.262       .  A
N634        O646   1.262       .  A
C636        C637   1.410       .  A
C636        N641   1.432       .  S
C637        C638   1.404       .  A
C637        H642   1.078       .  S
C638        C639   1.417       .  A
C639        C640   1.397       .  A
C639        N643   1.432   1_554  S
C640        H644   1.077       .  S
N641        O651   1.262       .  A
N641        O652   1.262       .  A
N643        O649   1.262       .  A
N643        O650   1.262       .  A
C653        C654   1.397   1_554  A
C653        C658   1.386   1_554  A
C653        H663   1.084       .  S
C654        C659   1.475   1_656  S
C654        C655   1.415       .  A
C655        C656   1.407       .  A
C655        N660   1.434       .  S
C656        C657   1.401       .  A
C656        H661   1.083       .  S
C657        C658   1.409       .  A
C658        N662   1.430   1_556  S
C659        C664   1.412   1_554  A
C659        C668   1.397       .  A
N660        O675   1.262       .  A
N660        O676   1.262       .  A
N662        O673   1.262       .  A
N662        O674   1.261       .  A
C664        C665   1.403   1_556  A
C664        N669   1.431       .  S
C665        C666   1.403       .  A
C665        H670   1.084       .  S
C666        C667   1.417       .  A
C667        C668   1.392       .  A
C667        N671   1.436       .  S
C668        H672   1.084   1_455  S
N669        O679   1.262       .  A
N669        O680   1.262       .  A
N671        O677   1.261       .  A
N671        O678   1.263       .  A
C681        C682   1.403       .  A
C681        C686   1.405       .  A
C681        H691   1.083       .  S
C682        C687   1.490       .  S
C682        C683   1.411       .  A
C683        C684   1.408       .  A
C683        N688   1.429       .  S
C684        C685   1.404       .  A
C684        H689   1.083       .  S
C685        C686   1.410       .  A
C686        N690   1.429       .  S
C687        C692   1.403       .  A
C687        C696   1.408       .  A
N688        O703   1.262       .  A
N688        O704   1.262       .  A
N690        O701   1.262       .  A
N690        O702   1.262       .  A
C692        C693   1.398       .  A
C692        N697   1.429       .  S
C693        C694   1.412       .  A
C693        H698   1.083       .  S
C694        C695   1.413       .  A
C695        C696   1.414       .  A
C695        N699   1.428       .  S
C696        H700   1.082       .  S
N697        O707   1.262       .  A
N697        O708   1.262       .  A
N699        O705   1.262       .  A
N699        O706   1.262       .  A
C709        C710   1.406       .  A
C709        C714   1.405       .  A
C709        H719   1.082       .  S
C710        C715   1.495       .  S
C710        C711   1.409       .  A
C711        C712   1.403       .  A
C711        N716   1.430       .  S
C712        C713   1.410       .  A
C712        H717   1.082       .  S
C713        C714   1.416       .  A
C714        N718   1.429       .  S
C715        C720   1.408       .  A
C715        C724   1.409       .  A
N716        O731   1.262       .  A
N716        O732   1.262       .  A
N718        O729   1.262       .  A
N718        O730   1.262       .  A
C720        C721   1.400       .  A
C720        N725   1.431       .  S
C721        C722   1.410       .  A
C721        H726   1.082       .  S
C722        C723   1.413       .  A
C723        C724   1.409       .  A
C723        N727   1.428       .  S
C724        H728   1.082       .  S
N725        O735   1.262       .  A
N725        O736   1.262       .  A
N727        O733   1.262       .  A
N727        O734   1.262       .  A
C737        C738   1.401       .  A
C737        C742   1.401       .  A
C737        H747   1.084       .  S
C738        C743   1.483       .  S
C738        C739   1.411       .  A
C739        C740   1.401       .  A
C739        N744   1.434       .  S
C740        C741   1.408       .  A
C740        H745   1.083       .  S
C741        C742   1.414       .  A
C742        N746   1.428       .  S
C743        C748   1.407       .  A
C743        C752   1.404       .  A
N744        O759   1.262       .  A
N744        O760   1.262       .  A
N746        O757   1.262       .  A
N746        O758   1.262       .  A
C748        C749   1.397       .  A
C748        N753   1.435       .  S
C749        C750   1.411       .  A
C749        H754   1.082       .  S
C750        C751   1.417       .  A
C751        C752   1.406       .  A
C751        N755   1.432       .  S
C752        H756   1.083       .  S
N753        O763   1.262       .  A
N753        O764   1.262       .  A
N755        O761   1.262       .  A
N755        O762   1.262       .  A
C765        C766   1.405       .  A
C765        C770   1.405       .  A
C765        H775   1.083       .  S
C766        C771   1.480       .  S
C766        C767   1.405       .  A
C767        C768   1.397       .  A
C767        N772   1.431       .  S
C768        C769   1.407       .  A
C768        H773   1.083       .  S
C769        C770   1.411       .  A
C770        N774   1.429       .  S
C771        C776   1.405       .  A
C771        C780   1.399       .  A
N772        O787   1.262       .  A
N772        O788   1.262       .  A
N774        O785   1.262       .  A
N774        O786   1.262       .  A
C776        C777   1.401       .  A
C776        N781   1.429       .  S
C777        C778   1.408       .  A
C777        H782   1.083       .  S
C778        C779   1.420       .  A
C779        C780   1.400       .  A
C779        N783   1.432       .  S
C780        H784   1.083       .  S
N781        O791   1.262       .  A
N781        O792   1.262       .  A
N783        O789   1.262       .  A
N783        O790   1.262       .  A
C793        C794   1.408       .  A
C793        C798   1.406       .  A
C793        H803   1.080   1_455  S
C794        C799   1.492       .  S
C794        C795   1.409       .  A
C795        C796   1.398       .  A
C795        N800   1.431       .  S
C796        C797   1.409       .  A
C796        H801   1.080       .  S
C797        C798   1.412       .  A
C798        N802   1.429       .  S
C799        C804   1.410   1_455  A
C799        C808   1.406       .  A
N800        O815   1.262       .  A
N800        O816   1.262       .  A
N802        O813   1.262       .  A
N802        O814   1.262       .  A
C804        C805   1.404       .  A
C804        N809   1.430       .  S
C805        C806   1.407       .  A
C805        H810   1.081       .  S
C806        C807   1.411       .  A
C807        C808   1.401   1_655  A
C807        N811   1.427       .  S
C808        H812   1.081       .  S
N809        O819   1.262       .  A
N809        O820   1.262       .  A
N811        O817   1.261       .  A
N811        O818   1.261       .  A
C821        C822   1.405       .  A
C821        C826   1.397       .  A
C821        H831   1.083       .  S
C822        C827   1.483   1_655  S
C822        C823   1.408       .  A
C823        C824   1.400       .  A
C823        N828   1.431   1_655  S
C824        C825   1.408       .  A
C824        H829   1.084       .  S
C825        C826   1.410       .  A
C826        N830   1.429       .  S
C827        C832   1.407       .  A
C827        C836   1.409       .  A
N828        O843   1.262       .  A
N828        O844   1.262       .  A
N830        O841   1.262       .  A
N830        O842   1.262       .  A
C832        C833   1.393       .  A
C832        N837   1.432       .  S
C833        C834   1.404       .  A
C833        H838   1.083       .  S
C834        C835   1.407       .  A
C835        C836   1.405       .  A
C835        N839   1.429       .  S
C836        H840   1.082       .  S
N837        O847   1.262   1_455  A
N837        O848   1.262       .  A
N839        O845   1.262       .  A
N839        O846   1.262       .  A
