geometry optimzed in LAMMPS
_audit_creation_date              2020-12-01 
_audit_creation_method            'lammps2cif' 
_symmetry_space_group_name_H-M    'P1' 
_symmetry_Int_Tables_number       1 
_symmetry_cell_setting            triclinic 
loop_ 
_symmetry_equiv_pos_as_xyz 
  x,y,z 
_cell_length_a                    40.37235842 
_cell_length_b                    34.48386364622267 
_cell_length_c                    44.791136146547615 
_cell_angle_alpha                 89.98449207461657 
_cell_angle_beta                  108.51905248803432 
_cell_angle_gamma                 90.24850843144355 
loop_ 
_atom_site_label 
_atom_site_type_symbol 
_atom_site_fract_x 
_atom_site_fract_y 
_atom_site_fract_z 
_atom_site_charge 
O1          O  0.36315289  0.53227430  0.42356242    -0.86000
O2          O  0.29555221  0.55151701  0.39604152    -0.83000
C3          C  0.26977609  0.57111490  0.38013591     0.97500
O4          O  0.27236027  0.59329719  0.35836213    -0.83100
O5          O  0.32519081  0.65240680  0.37531270    -0.85700
C6          C  0.35528454  0.66746747  0.38168041     1.02000
O7          O  0.38101128  0.64669729  0.38221907    -0.78500
O8          O  0.38243603  0.59227429  0.42840144    -0.78700
C9          C  0.37236130  0.56265390  0.44001253     1.01900
O10         O  0.36587256  0.50174455  0.36407329    -0.86000
O11         O  0.29588092  0.51932260  0.33774117    -0.83100
C12         C  0.28944379  0.53666275  0.31172825     0.97500
O13         O  0.30019086  0.57059692  0.31025993    -0.83100
O14         O  0.34832751  0.62743953  0.32447268    -0.85700
C15         C  0.37315896  0.60810005  0.32047268     1.02000
O16         O  0.39243777  0.58744834  0.34278210    -0.78500
O17         O  0.40837499  0.53635007  0.39438095    -0.78700
C18         C  0.39780980  0.50534922  0.37942153     1.01900
Cr19       Cr  0.33111374  0.52973366  0.37947405     1.93700
Cr20       Cr  0.31371009  0.60851737  0.34453765     1.93200
Cr21       Cr  0.38808722  0.58974106  0.38589974     1.39100
O22         O  0.34378178  0.57605809  0.36991371    -1.23700
O23         O  0.40487940  0.54624185  0.08308849    -0.86000
O24         O  0.46703655  0.54349449  0.12894698    -0.83000
C25         C  0.48142986  0.57573122  0.12736406     0.97500
O26         O  0.46854978  0.60703000  0.13357387    -0.83100
O27         O  0.42171237  0.65586461  0.15389129    -0.85700
C28         C  0.39483522  0.66773979  0.13269370     1.02000
O29         O  0.37497350  0.64356487  0.11457915    -0.78500
O30         O  0.35569452  0.57574909  0.08190701    -0.78700
C31         C  0.37648682  0.56220205  0.06815475     1.01900
O32         O  0.37236758  0.50203512  0.11843124    -0.86000
O33         O  0.43307873  0.50967136  0.17032301    -0.83100
C34         C  0.45959787  0.52459588  0.19020008     0.97500
O35         O  0.47099126  0.55700137  0.18454076    -0.83100
O36         O  0.42232566  0.59849016  0.19863154    -0.85700
C37         C  0.39125398  0.60414156  0.19753913     1.02000
O38         O  0.36709095  0.60943473  0.17151573    -0.78500
O39         O  0.34543743  0.54267196  0.13959517    -0.78700
C40         C  0.34794322  0.50945391  0.12919565     1.01900
Cr41       Cr  0.41843235  0.52910235  0.12646850     1.93700
Cr42       Cr  0.44287959  0.60286569  0.16494705     1.93200
Cr43       Cr  0.36432800  0.59145987  0.12762913     1.39100
O44         O  0.40819814  0.57510588  0.13911720    -1.23700
O45         O  0.11058846  0.40742215  0.08061184    -0.86000
O46         O  0.11135033  0.35632495  0.12900324    -0.83000
C47         C  0.13622209  0.33395910  0.12977643     0.97500
O48         O  0.16674888  0.34811917  0.13587281    -0.83100
O49         O  0.22195008  0.40577335  0.15362931    -0.85700
C50         C  0.22657067  0.42664664  0.13199412     1.02000
O51         O  0.20115662  0.44417924  0.11323166    -0.78500
O52         O  0.13424858  0.46550958  0.08273133    -0.78700
C53         C  0.12146390  0.43504956  0.06741775     1.01900
O54         O  0.08721601  0.46736900  0.11237844    -0.86000
O55         O  0.10121671  0.41978887  0.16632262    -0.83100
C56         C  0.11897783  0.39828888  0.18869425     0.97500
O57         O  0.14299064  0.37714606  0.18521781    -0.83100
O58         O  0.19205725  0.43315604  0.19845313    -0.85700
C59         C  0.20416670  0.46625895  0.19610801     1.02000
O60         O  0.19937209  0.48180155  0.16952552    -0.78500
O61         O  0.13097374  0.50245599  0.14001682    -0.78700
C62         C  0.09898053  0.49944665  0.12483982     1.01900
Cr63       Cr  0.10567433  0.41359185  0.12320551     1.93700
Cr64       Cr  0.17885136  0.39332468  0.16563835     1.93200
Cr65       Cr  0.16522255  0.47001228  0.12733678     1.39100
O66         O  0.15037740  0.42564892  0.13863454    -1.23700
O67         O  0.12927877  0.40390772  0.42559940    -0.86000
O68         O  0.13114323  0.35254165  0.37758424    -0.83000
C69         C  0.10737361  0.32961510  0.37856367     0.97500
O70         O  0.07684494  0.34261612  0.37401413    -0.83100
O71         O  0.01983286  0.39725900  0.35688613    -0.85700
C72         C  0.01385747  0.42428118  0.37364941     1.02000
O73         O  0.03713236  0.44857710  0.38724177    -0.78500
O74         O  0.10489780  0.46219680  0.42150840    -0.78700
C75         C  0.11821129  0.43240942  0.43778779     1.01900
O76         O  0.15523039  0.46166667  0.39595336    -0.86000
O77         O  0.13867661  0.41540672  0.33985637    -0.83100
C78         C  0.11955584  0.39445249  0.31740569     0.97500
O79         O  0.09682856  0.37177808  0.32203370    -0.83100
O80         O  0.04367653  0.42223287  0.30775284    -0.85700
C81         C  0.03814377  0.45807498  0.30728297     1.02000
O82         O  0.04756311  0.47845388  0.33197851    -0.78500
O83         O  0.11515894  0.49581994  0.36397358    -0.78700
C84         C  0.14643689  0.49237139  0.38075699     1.01900
Cr85       Cr  0.13512200  0.40919457  0.38336414     1.93700
Cr86       Cr  0.06155962  0.38608688  0.34279662     1.93200
Cr87       Cr  0.07739389  0.46748726  0.37561019     1.39100
O88         O  0.09035326  0.42082303  0.36746105    -1.23700
O89         O  0.38691905  0.92632850  0.17515842    -0.86000
O90         O  0.37360699  0.85579719  0.14586286    -0.83000
C91         C  0.35339099  0.83066427  0.12927357     0.97500
O92         O  0.32639332  0.84110548  0.10755239    -0.83100
O93         O  0.27685385  0.89253464  0.11938200    -0.85700
C94         C  0.26250385  0.92428649  0.12200161     1.02000
O95         O  0.27668088  0.95597772  0.11880136    -0.78500
O96         O  0.33553810  0.95302090  0.16946088    -0.78700
C97         C  0.36323385  0.93727221  0.18659273     1.01900
O98         O  0.40247924  0.95598298  0.11890558    -0.86000
O99         O  0.38486397  0.88696752  0.08995829    -0.83100
C100        C  0.36184982  0.88646154  0.06293410     0.97500
O101        O  0.32992854  0.89058374  0.05933993    -0.83100
O102        O  0.27986117  0.93673868  0.06559516    -0.85700
C103        C  0.29205050  0.96896352  0.06024132     1.02000
O104        O  0.31641302  0.98567000  0.08147879    -0.78500
O105        O  0.37305554  0.99666406  0.13723238    -0.78700
C106        C  0.39910618  0.98928299  0.12865951     1.01900
Cr107      Cr  0.38323474  0.90767075  0.13137762     1.93700
Cr108      Cr  0.30598279  0.89240641  0.09070647     1.93200
Cr109      Cr  0.32663334  0.96908967  0.12582340     1.39100
O110        O  0.33895492  0.92242737  0.11622953    -1.23700
O111        O  0.36131322  0.92130909  0.33378145    -0.86000
O112        O  0.38061527  0.85186996  0.36399850    -0.83000
C113        C  0.39949891  0.82729141  0.38229492     0.97500
O114        O  0.42682184  0.83830482  0.40363682    -0.83100
O115        O  0.47520949  0.88636570  0.38442534    -0.85700
C116        C  0.48862322  0.91752462  0.37846342     1.02000
O117        O  0.47461483  0.94981495  0.38011207    -0.78500
O118        O  0.41256447  0.94471051  0.33421777    -0.78700
C119        C  0.38297800  0.93084083  0.31956200     1.01900
O120        O  0.35471803  0.95181407  0.39345982    -0.86000
O121        O  0.37437637  0.88228165  0.42189525    -0.83100
C122        C  0.39835708  0.88602526  0.44817580     0.97500
O123        O  0.42918219  0.89418298  0.44966209    -0.83100
O124        O  0.47808221  0.93640214  0.43592125    -0.85700
C125        C  0.46691092  0.96910333  0.44113357     1.02000
O126        O  0.44081202  0.98413341  0.42080833    -0.78500
O127        O  0.37928397  0.99055469  0.36857468    -0.78700
C128        C  0.35597218  0.98423964  0.38116273     1.01900
Cr129      Cr  0.37115267  0.90318185  0.37900780     1.93700
Cr130      Cr  0.44954264  0.89055531  0.41579538     1.93200
Cr131      Cr  0.42590367  0.96397881  0.37711513     1.39100
O132        O  0.41531358  0.91861117  0.39028549    -1.23700
O133        O  0.11280603  0.03432377  0.17028786    -0.86000
O134        O  0.04520277  0.05465414  0.14397625    -0.83000
C135        C  0.01911323  0.07332018  0.12747447     0.97500
O136        O  0.02229410  0.09677093  0.10672572    -0.83100
O137        O  0.07861993  0.15291398  0.12113840    -0.85700
C138        C  0.10883416  0.16685210  0.12516474     1.02000
O139        O  0.13262317  0.14451598  0.12329657    -0.78500
O140        O  0.13487797  0.09321474  0.17227753    -0.78700
C141        C  0.12507641  0.06497050  0.18564348     1.01900
O142        O  0.11185344  0.99962550  0.11065066    -0.86000
O143        O  0.04221248  0.01943969  0.08576800    -0.83100
C144        C  0.03406892  0.03695637  0.05969975     0.97500
O145        O  0.04498538  0.07058353  0.05747907    -0.83100
O146        O  0.09600721  0.12286332  0.06744241    -0.85700
C147        C  0.11913770  0.10091755  0.06288135     1.02000
O148        O  0.13917673  0.08122120  0.08532919    -0.78500
O149        O  0.15612494  0.03352010  0.13888273    -0.78700
C150        C  0.14409408  0.00235251  0.12495062     1.01900
Cr151      Cr  0.07912516  0.03038226  0.12669999     1.93700
Cr152      Cr  0.06284839  0.10867375  0.09077270     1.93200
Cr153      Cr  0.13754467  0.08731102  0.12900642     1.39100
O154        O  0.09257902  0.07538774  0.11538559    -1.23700
O155        O  0.14036816  0.03509399  0.33139286    -0.86000
O156        O  0.20817797  0.05655972  0.35814537    -0.83000
C157        C  0.23444180  0.07407897  0.37590918     0.97500
O158        O  0.23109290  0.09717170  0.39686530    -0.83100
O159        O  0.17573101  0.15516396  0.38055371    -0.85700
C160        C  0.14521446  0.16866667  0.37529682     1.02000
O161        O  0.12072480  0.14635213  0.37587212    -0.78500
O162        O  0.11835022  0.09385341  0.32822015    -0.78700
C163        C  0.12767429  0.06497177  0.31534257     1.01900
O164        O  0.14023355  0.00217566  0.39138165    -0.86000
O165        O  0.21002778  0.02259961  0.41659495    -0.83100
C166        C  0.21706934  0.03985071  0.44276136     0.97500
O167        O  0.20503032  0.07289005  0.44473239    -0.83100
O168        O  0.15544208  0.12712133  0.43278505    -0.85700
C169        C  0.13141298  0.10626068  0.43719341     1.02000
O170        O  0.11214604  0.08536624  0.41499881    -0.78500
O171        O  0.09624075  0.03558570  0.36252212    -0.78700
C172        C  0.10791233  0.00497709  0.37735533     1.01900
Cr173      Cr  0.17352907  0.03248681  0.37525373     1.93700
Cr174      Cr  0.18956086  0.11092583  0.41106978     1.93200
Cr175      Cr  0.11506671  0.08946670  0.37141206     1.39100
O176        O  0.15991684  0.07770515  0.38587670    -1.23700
C177        C  0.12552004  0.03125749  0.23442169    -0.27000
C178        C  0.12726426  0.06643570  0.21921908    -0.15000
C179        C  0.12720039  0.10159087  0.23532922     0.35600
C180        C  0.12602071  0.10079065  0.26638164    -0.26400
C181        C  0.12468477  0.06540724  0.28157238    -0.15700
C182        C  0.12392473  0.03039982  0.26506242     0.36700
N183        N  0.12099773  0.99371187  0.27909489    -0.89900
H184        H  0.12497489  0.00390498  0.22235040     0.17800
H185        H  0.12676297  0.12792222  0.27878726     0.17800
N186        N  0.12751969  0.13807227  0.22012603    -0.88900
H187        H  0.14254012  0.97686848  0.27929320     0.35200
H188        H  0.09845148  0.97974778  0.26489343     0.40300
H189        H  0.14938027  0.15378065  0.23356142     0.39900
H190        H  0.10519229  0.15340087  0.22001062     0.34800
C191        C  0.09077350  0.09297357  0.00524893    -0.27000
C192        C  0.12158029  0.09832295  0.03079653    -0.15000
C193        C  0.15366628  0.10163594  0.02510971     0.35600
C194        C  0.15787690  0.10965629  0.49534630    -0.26400
C195        C  0.12753299  0.10614861  0.46903660    -0.15700
C196        C  0.09160106  0.09139077  0.97414422     0.36700
N197        N  0.05991676  0.08563890  0.94862907    -0.89900
H198        H  0.06589584  0.08993031  0.00940800     0.17800
H199        H  0.18322914  0.11224215  0.49201920     0.17800
N200        N  0.18538947  0.10671069  0.05070316    -0.88900
H201        H  0.04886154  0.05929531  0.95227665     0.35200
H202        H  0.04681206  0.12052629  0.44861064     0.40300
H203        H  0.19696273  0.13279506  0.04725241     0.39900
H204        H  0.20372866  0.08892169  0.55116730     0.34800
C205        C  0.51514041  0.97068229  0.49177097    -0.27000
C206        C  0.48544951  0.98880424  0.47106255    -0.15000
C207        C  0.47393842  0.02417372  0.47999177     0.35600
C208        C  0.99193399  0.04363552  0.00642255    -0.26400
C209        C  0.01094903  0.01893900  0.03084576    -0.15700
C210        C  0.00919855  0.97845495  0.02593379     0.36700
N211        N  0.02755445  0.95144676  0.04968328    -0.89900
H212        H  0.52472672  0.94363238  0.48541600     0.17800
H213        H  0.99245528  0.07475517  0.00997692     0.17800
N214        N  0.44351078  0.04320579  0.45996600    -0.88900
H215        H  0.52718196  0.95460169  0.07011072     0.35200
H216        H  0.05417871  0.95834475  0.05692741     0.40300
H217        H  0.45079548  0.07101313  0.45505307     0.39900
H218        H  0.93921354  0.07205168  0.45855976     0.34800
C219        C  0.30755244  0.02833395  0.35116522    -0.27000
C220        C  0.32888855  0.01382570  0.38024449    -0.15000
C221        C  0.32151773  0.02449767  0.40780776     0.35600
C222        C  0.29282055  0.04853189  0.40592364    -0.26400
C223        C  0.26976975  0.06057616  0.37670001    -0.15700
C224        C  0.27757149  0.05056340  0.34910555     0.36700
N225        N  0.25443321  0.06168792  0.31889930    -0.89900
H226        H  0.31274481  0.02015158  0.32973827     0.17800
H227        H  0.28685057  0.05492472  0.42734741     0.17800
N228        N  0.34252510  0.00991647  0.43775110    -0.88900
H229        H  0.24573182  0.03648395  0.30571515     0.35200
H230        H  0.26873473  0.07799652  0.30752182     0.40300
H231        H  0.32627133  0.99433771  0.44759104     0.39900
H232        H  0.35272521  0.03358477  0.45241120     0.34800
C233        C  0.05121223  0.93283003  0.40350199    -0.27000
C234        C  0.02252101  0.93003306  0.37570514    -0.15000
C235        C  0.02564849  0.94554630  0.34773774     0.35600
C236        C  0.05562358  0.96667702  0.34838361    -0.26400
C237        C  0.08269579  0.97326278  0.37674901    -0.15700
C238        C  0.08133576  0.95454331  0.40437209     0.36700
N239        N  0.10898487  0.96022556  0.43358273    -0.89900
H240        H  0.04852914  0.92179977  0.42528304     0.17800
H241        H  0.05655674  0.98049305  0.32691489     0.17800
N242        N  0.49619947  0.93488626  0.31789396    -0.88900
H243        H  0.10394897  0.94446398  0.45162915     0.35200
H244        H  0.10914131  0.98950594  0.43970404     0.40300
H245        H  0.50508768  0.92332788  0.30025886     0.39900
H246        H  0.48736144  0.96303176  0.31124205     0.34800
C247        C  0.26119711  0.96260438  0.00314254    -0.27000
C248        C  0.27590193  0.98688960  0.02927250    -0.15000
C249        C  0.27230257  0.02724107  0.02570740     0.35600
C250        C  0.24975686  0.04411096  0.49971588    -0.26400
C251        C  0.24012963  0.02199928  0.47179279    -0.15700
C252        C  0.25236281  0.98365044  0.47254465     0.36700
N253        N  0.24468940  0.96073818  0.44446903    -0.89900
H254        H  0.26422227  0.93142003  0.00555844     0.17800
H255        H  0.24123873  0.07389037  0.49940141     0.17800
N256        N  0.28710258  0.05269234  0.05186384    -0.88900
H257        H  0.20968558  0.93290207  0.95489282     0.35200
H258        H  0.26835860  0.95213649  0.44169544     0.40300
H259        H  0.26686184  0.06873904  0.05560656     0.39900
H260        H  0.26813244  0.07864044  0.55225403     0.34800
C261        C  0.34811067  0.86497760  0.00750989    -0.27000
C262        C  0.37169806  0.88276923  0.03418165    -0.15000
C263        C  0.40134873  0.90187401  0.03144024     0.35600
C264        C  0.40698867  0.90287253  0.00230615    -0.26400
C265        C  0.39091469  0.88167947  0.47815005    -0.15700
C266        C  0.36352228  0.85804736  0.48104142     0.36700
N267        N  0.34279734  0.83523134  0.45485269    -0.89900
H268        H  0.32495592  0.85071344  0.00955851     0.17800
H269        H  0.42967065  0.91852516  0.00062436     0.17800
N270        N  0.42472453  0.92226095  0.05765915    -0.88900
H271        H  0.32353034  0.81979660  0.46091967     0.35200
H272        H  0.35924200  0.81459921  0.44989050     0.40300
H273        H  0.42508790  0.95146674  0.05145246     0.39900
H274        H  0.44983045  0.91115840  0.06173218     0.34800
C275        C  0.33967972  0.94227511  0.23180338    -0.27000
C276        C  0.36746924  0.93203295  0.22055429    -0.15000
C277        C  0.39805548  0.91631721  0.24186701     0.35600
C278        C  0.40146811  0.91436420  0.27387791    -0.26400
C279        C  0.37467027  0.92689744  0.28525552    -0.15700
C280        C  0.34292228  0.93965338  0.26394905     0.36700
N281        N  0.31466471  0.95107494  0.27503529    -0.89900
H282        H  0.31546827  0.95309834  0.21561539     0.17800
H283        H  0.42569795  0.90364001  0.29016774     0.17800
N284        N  0.42591058  0.90254832  0.23136995    -0.88900
H285        H  0.29290849  0.95920495  0.25618296     0.35200
H286        H  0.32271448  0.97575278  0.28904060     0.40300
H287        H  0.43002869  0.87330529  0.23757258     0.39900
H288        H  0.44860363  0.91794804  0.24335992     0.34800
C289        C  0.42650478  0.04248526  0.10618655    -0.27000
C290        C  0.42709248  0.01864368  0.13173808    -0.15000
C291        C  0.45651489  0.01978877  0.15901883     0.35600
C292        C  0.48594534  0.04211350  0.15922967    -0.26400
C293        C  0.48699941  0.06315316  0.13251961    -0.15700
C294        C  0.45590682  0.06470560  0.10625427     0.36700
N295        N  0.95066220  0.08632458  0.07618384    -0.89900
H296        H  0.40375808  0.04211582  0.08526801     0.17800
H297        H  0.50916307  0.04080760  0.17967643     0.17800
N298        N  0.45717330  0.99633651  0.18574647    -0.88900
H299        H  0.96839878  0.07523210  0.06579028     0.35200
H300        H  0.95698083  0.11521977  0.08270824     0.40300
H301        H  0.43775645  0.00663982  0.19452611     0.39900
H302        H  0.48092723  0.99975049  0.20377613     0.34800
C303        C  0.22524922  0.94128510  0.15383279    -0.27000
C304        C  0.22749479  0.92686193  0.12532676    -0.15000
C305        C  0.19840955  0.93029485  0.09788748     0.35600
C306        C  0.16890835  0.95137547  0.09869348    -0.26400
C307        C  0.16866358  0.97003946  0.12643321    -0.15700
C308        C  0.19609076  0.96286138  0.15469565     0.36700
N309        N  0.19526223  0.97985952  0.18376775    -0.89900
H310        H  0.24782122  0.93924947  0.17482245     0.17800
H311        H  0.14793997  0.95652462  0.07694408     0.17800
N312        N  0.20038154  0.91598427  0.06848432    -0.88900
H313        H  0.21760537  0.97238665  0.20225496     0.35200
H314        H  0.17397851  0.96779105  0.18905131     0.40300
H315        H  0.19732639  0.93941838  0.05302487     0.39900
H316        H  0.17945286  0.89690242  0.05916342     0.34800
C317        C  0.09286756  0.26176165  0.35984139    -0.27000
C318        C  0.11596355  0.28769441  0.38028312    -0.15000
C319        C  0.15023094  0.27497869  0.39689476     0.35600
C320        C  0.16051413  0.23683272  0.39313656    -0.26400
C321        C  0.13726012  0.21078140  0.37293596    -0.15700
C322        C  0.10327138  0.22376845  0.35583880     0.36700
N323        N  0.07924300  0.19838312  0.33403114    -0.89900
H324        H  0.06710827  0.27145599  0.34586092     0.17800
H325        H  0.18629589  0.22715891  0.40707701     0.17800
N326        N  0.17468269  0.30078003  0.41789123    -0.88900
H327        H  0.07204270  0.21137326  0.31180576     0.35200
H328        H  0.05686240  0.19576770  0.34086622     0.40300
H329        H  0.19656499  0.30322173  0.41029363     0.39900
H330        H  0.18267181  0.28826116  0.44029717     0.34800
C331        C  0.15654029  0.26513493  0.14057328    -0.27000
C332        C  0.12915232  0.29110279  0.12719988    -0.15000
C333        C  0.09473661  0.27551349  0.11435306     0.35600
C334        C  0.08886421  0.23545250  0.11514257    -0.26400
C335        C  0.11621863  0.20952008  0.12830316    -0.15700
C336        C  0.15063348  0.22497025  0.14122137     0.36700
N337        N  0.18021720  0.20091729  0.15580642    -0.89900
H338        H  0.18286773  0.27612440  0.15114147     0.17800
H339        H  0.06252910  0.22445754  0.10460312     0.17800
N340        N  0.06498357  0.29926360  0.09965610    -0.88900
H341        H  0.18495090  0.18306321  0.13878695     0.35200
H342        H  0.17480447  0.18391074  0.17304164     0.40300
H343        H  0.07015300  0.31613125  0.08222195     0.39900
H344        H  0.06001109  0.31707892  0.11657751     0.34800
C345        C  0.11662563  0.46829708  0.01737641    -0.27000
C346        C  0.11970342  0.43322769  0.03390564    -0.15000
C347        C  0.12540434  0.39865842  0.01924027     0.35600
C348        C  0.11504318  0.39741014  0.48578466    -0.26400
C349        C  0.12056795  0.43202342  0.47143646    -0.15700
C350        C  0.12533909  0.46687732  0.48870940     0.36700
N351        N  0.13231385  0.50253557  0.47532817    -0.89900
H352        H  0.11295382  0.49522070  0.02840302     0.17800
H353        H  0.11102689  0.37045816  0.47265166     0.17800
N354        N  0.13074900  0.36214232  0.03527808    -0.88900
H355        H  0.15631832  0.51337045  0.48967608     0.30400
H356        H  0.11293904  0.52241940  0.47563726     0.40300
H357        H  0.10831203  0.35509424  0.04105419     0.39900
H358        H  0.15185344  0.36484787  0.05597677     0.34800
C359        C  0.11295743  0.36231803  0.26631859    -0.27000
C360        C  0.12162046  0.39596626  0.28497542    -0.15000
C361        C  0.12575253  0.43121551  0.27060169     0.35600
C362        C  0.12205234  0.43206125  0.23827184    -0.26400
C363        C  0.11421304  0.39818077  0.21996492    -0.15700
C364        C  0.10947061  0.36300057  0.23427023     0.36700
N365        N  0.10053280  0.32762388  0.21667665    -0.89900
H366        H  0.10863520  0.33514369  0.27671671     0.17800
H367        H  0.12654198  0.45903864  0.22770029     0.17800
N368        N  0.13266434  0.46638882  0.28845040    -0.88900
H369        H  0.07786226  0.33229957  0.19770120     0.35200
H370        H  0.12071922  0.32017487  0.20788971     0.40300
H371        H  0.11241534  0.48570767  0.27796806     0.39900
H372        H  0.15575878  0.47828921  0.28659493     0.34800
C373        C  0.40350932  0.73545618  0.15507040    -0.27000
C374        C  0.38499218  0.70992561  0.13087959    -0.15000
C375        C  0.35494077  0.72421950  0.10749552     0.35600
C376        C  0.34417506  0.76272799  0.10902145    -0.26400
C377        C  0.36291468  0.78846754  0.13279544    -0.15700
C378        C  0.39293577  0.77432154  0.15633635     0.36700
N379        N  0.41281523  0.79931683  0.18137685    -0.89900
H380        H  0.42616804  0.72492226  0.17349749     0.17800
H381        H  0.32152217  0.77309375  0.09050108     0.17800
N382        N  0.33558570  0.69993165  0.08176616    -0.88900
H383        H  0.43440424  0.78475410  0.19628710     0.35200
H384        H  0.39687893  0.80639110  0.19497630     0.40300
H385        H  0.35158064  0.69538792  0.06783233     0.39900
H386        H  0.31336051  0.71418081  0.06745626     0.34800
C387        C  0.00609564  0.53137660  0.24204871    -0.27000
C388        C  0.47850213  0.50526199  0.22003420    -0.15000
C389        C  0.46898632  0.46845136  0.22841905     0.35600
C390        C  0.48849245  0.45206195  0.25720231    -0.26400
C391        C  0.01965115  0.47615213  0.27690132    -0.15700
C392        C  0.02488715  0.51544151  0.27108186     0.36700
N393        N  0.04949469  0.53893524  0.29442207    -0.89900
H394        H  0.00982849  0.56182814  0.23802006     0.17800
H395        H  0.48149032  0.42348762  0.26338588     0.17800
N396        N  0.43951507  0.44783669  0.20816929    -0.88900
H397        H  0.04987211  0.56734948  0.28639145     0.35200
H398        H  0.07436213  0.52763543  0.29763615     0.40300
H399        H  0.42192768  0.44283521  0.22059768     0.39900
H400        H  0.44813917  0.42096566  0.20282945     0.34800
C401        C  0.26624552  0.44716393  0.10200046    -0.27000
C402        C  0.26233047  0.43600258  0.13094713    -0.15000
C403        C  0.29050150  0.44329342  0.15893248     0.35600
C404        C  0.31912417  0.46568282  0.15767234    -0.26400
C405        C  0.32132982  0.47964972  0.12899981    -0.15700
C406        C  0.29577572  0.46829873  0.10072922     0.36700
N407        N  0.29868852  0.48060625  0.07099858    -0.89900
H408        H  0.24520821  0.44136510  0.08039158     0.17800
H409        H  0.33918929  0.47351148  0.17942937     0.17800
N410        N  0.29012462  0.43033064  0.18920361    -0.88900
H411        H  0.27732573  0.47063012  0.05247413     0.35200
H412        H  0.32077422  0.46728819  0.06828596     0.40300
H413        H  0.28736453  0.40016832  0.18854424     0.39900
H414        H  0.26891718  0.44263279  0.19416449     0.34800
C415        C  0.01722476  0.55926295  0.09260570    -0.27000
C416        C  0.01702197  0.57986070  0.11950649    -0.15000
C417        C  0.04820320  0.58217764  0.14521595     0.35600
C418        C  0.07681829  0.55835977  0.14565984    -0.26400
C419        C  0.07444195  0.53262800  0.12072306    -0.15700
C420        C  0.04550612  0.53559022  0.09302902     0.36700
N421        N  0.04385718  0.51281535  0.06582975    -0.89900
H422        H  0.49312183  0.55380071  0.07453577     0.17800
H423        H  0.09947724  0.55726444  0.16660685     0.17800
N424        N  0.04916884  0.60528843  0.17215707    -0.88900
H425        H  0.04083419  0.53168829  0.04688557     0.35200
H426        H  0.02165252  0.49510107  0.06060302     0.40300
H427        H  0.04628073  0.63423838  0.16489320     0.39900
H428        H  0.07362992  0.60321522  0.18942083     0.34800
C429        C  0.34740717  0.73290885  0.35748510    -0.27000
C430        C  0.36143406  0.70980092  0.38429476    -0.15000
C431        C  0.38837999  0.72509953  0.40989010     0.35600
C432        C  0.40099390  0.76286226  0.40836183    -0.26400
C433        C  0.38754740  0.78603768  0.38133496    -0.15700
C434        C  0.36023515  0.77065230  0.35571526     0.36700
N435        N  0.34607244  0.79269607  0.32745284    -0.89900
H436        H  0.32776683  0.72082047  0.33707200     0.17800
H437        H  0.42130975  0.77411766  0.42866396     0.17800
N438        N  0.40330824  0.70197865  0.43743469    -0.88900
H439        H  0.31922774  0.79566099  0.32333625     0.35200
H440        H  0.34959969  0.77689165  0.30877873     0.40300
H441        H  0.40017922  0.71678468  0.45672373     0.39900
H442        H  0.43007582  0.69941177  0.44095630     0.34800
C443        C  0.22440358  0.47120831  0.25415114    -0.27000
C444        C  0.22554059  0.48580387  0.22517613    -0.15000
C445        C  0.24828454  0.51702370  0.22487225     0.35600
C446        C  0.26917718  0.53269155  0.25354217    -0.26400
C447        C  0.26812584  0.51779717  0.28242288    -0.15700
C448        C  0.24550710  0.48669276  0.28263188     0.36700
N449        N  0.24337230  0.47105262  0.31161794    -0.89900
H450        H  0.20700422  0.44744822  0.25487229     0.17800
H451        H  0.28666262  0.55653806  0.25328101     0.17800
N452        N  0.25039872  0.53268649  0.19574451    -0.88900
H453        H  0.24912926  0.44148007  0.31220753     0.35200
H454        H  0.21769228  0.47395579  0.31182689     0.40300
H455        H  0.26161816  0.51163277  0.18525559     0.39900
H456        H  0.26728028  0.55659752  0.19991302     0.34800
C457        C  0.39828398  0.57971608  0.28158045    -0.27000
C458        C  0.37815137  0.60881097  0.28903482    -0.15000
C459        C  0.36031823  0.63547663  0.26521031     0.35600
C460        C  0.36350893  0.63278279  0.23491932    -0.26400
C461        C  0.38429412  0.60410965  0.22794546    -0.15700
C462        C  0.40128203  0.57700513  0.25140866     0.36700
N463        N  0.42127195  0.54608471  0.24451693    -0.89900
H464        H  0.41126974  0.55828202  0.29903295     0.17800
H465        H  0.35052930  0.65384529  0.21713069     0.17800
N466        N  0.33919455  0.66561628  0.27160262    -0.88900
H467        H  0.41041291  0.51978939  0.24854273     0.35200
H468        H  0.44661412  0.54799428  0.26034982     0.40300
H469        H  0.31382189  0.66239853  0.25602871     0.39900
H470        H  0.34900526  0.69229026  0.26702591     0.34800
C471        C  0.37001254  0.59846452  0.48777327    -0.27000
C472        C  0.37030595  0.56292284  0.47242871    -0.15000
C473        C  0.36608726  0.52803812  0.48754539     0.35600
C474        C  0.36863361  0.52857904  0.01822277    -0.26400
C475        C  0.36862118  0.56372223  0.03385074    -0.15700
C476        C  0.37005135  0.59888534  0.01823430     0.36700
N477        N  0.37066485  0.63551225  0.03337190    -0.89900
H478        H  0.37226314  0.62554541  0.47627256     0.17800
H479        H  0.36861977  0.50140923  0.03042465     0.17800
N480        N  0.36602359  0.49103418  0.47295968    -0.88900
H481        H  0.39230367  0.63629832  0.05381174     0.35200
H482        H  0.34802889  0.63728693  0.03982748     0.40300
H483        H  0.34253893  0.47692466  0.47138385     0.39900
H484        H  0.38651935  0.47459253  0.48753228     0.34800
C485        C  0.48083355  0.44655245  0.40773068    -0.27000
C486        C  0.48231619  0.43026855  0.37945290    -0.15000
C487        C  0.45198121  0.43215112  0.35251649     0.35600
C488        C  0.42287486  0.45368914  0.35362822    -0.26400
C489        C  0.42357223  0.47413377  0.38088347    -0.15700
C490        C  0.45190751  0.46836988  0.40864807     0.36700
N491        N  0.45198116  0.48595667  0.43765461    -0.89900
H492        H  0.99760199  0.44250102  0.42545342     0.17800
H493        H  0.40100509  0.45729586  0.33226969     0.17800
N494        N  0.45103760  0.41563308  0.32293881    -0.88900
H495        H  0.47390154  0.50404383  0.44548470     0.35200
H496        H  0.45455617  0.46396874  0.45430790     0.40300
H497        H  0.45595421  0.38588997  0.32611478     0.39900
H498        H  0.47058815  0.42852277  0.31566896     0.34800
C499        C  0.20457003  0.56673645  0.35865032    -0.27000
C500        C  0.23530043  0.56317201  0.38449918    -0.15000
C501        C  0.23340958  0.54356266  0.41159570     0.35600
C502        C  0.20290377  0.52330365  0.41064045    -0.26400
C503        C  0.17368364  0.52253545  0.38324401    -0.15700
C504        C  0.17376238  0.54672106  0.35790268     0.36700
N505        N  0.14353230  0.54915220  0.33058451    -0.89900
H506        H  0.20520094  0.58223984  0.33779529     0.17800
H507        H  0.20281556  0.50630095  0.43098076     0.17800
N508        N  0.26300693  0.54254160  0.43966839    -0.88900
H509        H  0.15076352  0.54113279  0.31103928     0.35200
H510        H  0.13579504  0.57816765  0.32765188     0.40300
H511        H  0.26999238  0.51355174  0.44494261     0.39900
H512        H  0.25545488  0.55396649  0.45811534     0.34800
O513        O  0.36277548  0.53343447  0.92218011    -0.86000
O514        O  0.29525253  0.55401331  0.89346679    -0.83000
C515        C  0.26945615  0.57272962  0.87635712     0.97500
O516        O  0.27266733  0.59438381  0.85452688    -0.83100
O517        O  0.32506203  0.65367545  0.87323184    -0.85700
C518        C  0.35511640  0.66900998  0.88057918     1.02000
O519        O  0.38134436  0.64846950  0.88203516    -0.78500
O520        O  0.38277621  0.59321729  0.92754799    -0.78700
C521        C  0.37304295  0.56334490  0.93906928     1.01900
O522        O  0.36620359  0.50374346  0.86238434    -0.86000
O523        O  0.29648459  0.52182284  0.83563538    -0.83100
C524        C  0.29067468  0.53880802  0.80954544     0.97500
O525        O  0.30274393  0.57208950  0.80795024    -0.83100
O526        O  0.35063332  0.62959383  0.82379137    -0.85700
C527        C  0.37544954  0.60994237  0.82017731     1.02000
O528        O  0.39433068  0.58950630  0.84273423    -0.78500
O529        O  0.40890141  0.53771521  0.89322624    -0.78700
C530        C  0.39820987  0.50720661  0.87750744     1.01900
Cr531      Cr  0.33130988  0.53169775  0.87764424     1.93700
Cr532      Cr  0.31494992  0.61008573  0.84232682     1.93200
Cr533      Cr  0.38883614  0.59137798  0.88528629     1.39100
O534        O  0.34454160  0.57785120  0.86847656    -1.23700
O535        O  0.40465304  0.54853775  0.58138188    -0.86000
O536        O  0.46827164  0.54500164  0.62524337    -0.83000
C537        C  0.48221907  0.57769091  0.62412749     0.97500
O538        O  0.46910862  0.60831698  0.63131814    -0.83100
O539        O  0.42159538  0.65461641  0.65331803    -0.85700
C540        C  0.39396503  0.66577573  0.63250793     1.02000
O541        O  0.37464608  0.64118286  0.61446302    -0.78500
O542        O  0.35455368  0.57311251  0.58293022    -0.78700
C543        C  0.37494124  0.56249655  0.56783649     1.01900
O544        O  0.37425974  0.50158868  0.61705699    -0.86000
O545        O  0.43715595  0.50824724  0.66747848    -0.83100
C546        C  0.46387185  0.52336036  0.68703106     0.97500
O547        O  0.47417963  0.55654451  0.68174220    -0.83100
O548        O  0.42579812  0.59590196  0.69827067    -0.85700
C549        C  0.39511710  0.60205731  0.69810459     1.02000
O550        O  0.37049832  0.60775507  0.67255655    -0.78500
O551        O  0.34977385  0.53987833  0.64223101    -0.78700
C552        C  0.35087800  0.50780523  0.62950074     1.01900
Cr553      Cr  0.42023715  0.52925002  0.62412904     1.93700
Cr554      Cr  0.44470873  0.60219443  0.66360057     1.93200
Cr555      Cr  0.36587978  0.58919128  0.62866778     1.39100
O556        O  0.41001099  0.57416570  0.63830373    -1.23700
O557        O  0.10980211  0.40660848  0.58110037    -0.86000
O558        O  0.11205882  0.35593057  0.62994783    -0.83000
C559        C  0.13671000  0.33417575  0.62922153     0.97500
O560        O  0.16708166  0.34841781  0.63457473    -0.83100
O561        O  0.22218945  0.40615716  0.65089768    -0.85700
C562        C  0.22621229  0.42832023  0.62970759     1.02000
O563        O  0.20044017  0.44626957  0.61184790    -0.78500
O564        O  0.13254500  0.46508934  0.58281685    -0.78700
C565        C  0.12003320  0.43441698  0.56760414     1.01900
O566        O  0.08693106  0.46616604  0.61327995    -0.86000
O567        O  0.10306472  0.41891211  0.66760022    -0.83100
C568        C  0.12148073  0.39740738  0.68965570     0.97500
O569        O  0.14571959  0.37689815  0.68574065    -0.83100
O570        O  0.19493253  0.43255903  0.69775629    -0.85700
C571        C  0.20557135  0.46632864  0.69519392     1.02000
O572        O  0.19936948  0.48241669  0.66866731    -0.78500
O573        O  0.13058043  0.50111241  0.64106276    -0.78700
C574        C  0.09864850  0.49806971  0.62596115     1.01900
Cr575      Cr  0.10611687  0.41285607  0.62408167     1.93700
Cr576      Cr  0.18030438  0.39318475  0.66464461     1.93200
Cr577      Cr  0.16455581  0.47022748  0.62703158     1.39100
O578        O  0.15087137  0.42541108  0.63852235    -1.23700
O579        O  0.13247051  0.40556672  0.92635458    -0.86000
O580        O  0.13154623  0.35115478  0.87962260    -0.83000
C581        C  0.10680868  0.32901026  0.88003517     0.97500
O582        O  0.07656529  0.34317270  0.87486317    -0.83100
O583        O  0.02128620  0.40007649  0.85632754    -0.85700
C584        C  0.01700945  0.42495940  0.87564175     1.02000
O585        O  0.04205393  0.44608205  0.89122425    -0.78500
O586        O  0.10980224  0.46436405  0.92131767    -0.78700
C587        C  0.12216162  0.43485259  0.93820062     1.01900
O588        O  0.15696269  0.46192857  0.89299667    -0.86000
O589        O  0.14047148  0.41252702  0.84003544    -0.83100
C590        C  0.12111930  0.39147417  0.81798680     0.97500
O591        O  0.09861032  0.36907493  0.82321289    -0.83100
O592        O  0.04827335  0.42230788  0.80797590    -0.85700
C593        C  0.03971059  0.45721799  0.80798900     1.02000
O594        O  0.04615185  0.47627717  0.83328802    -0.78500
O595        O  0.11503655  0.49512983  0.86158440    -0.78700
C596        C  0.14685513  0.49218875  0.87719110     1.01900
Cr597      Cr  0.13722144  0.40845847  0.88358587     1.93700
Cr598      Cr  0.06330254  0.38613586  0.84314774     1.93200
Cr599      Cr  0.07937522  0.46684432  0.87618327     1.39100
O600        O  0.09253226  0.42034424  0.86790030    -1.23700
O601        O  0.38678244  0.92461819  0.67438718    -0.86000
O602        O  0.37088510  0.85357960  0.64560002    -0.83000
C603        C  0.35166349  0.82854979  0.62781133     0.97500
O604        O  0.32612861  0.83927960  0.60467825    -0.83100
O605        O  0.27594721  0.89177129  0.61507197    -0.85700
C606        C  0.26266976  0.92395213  0.61860873     1.02000
O607        O  0.27766326  0.95526954  0.61598183    -0.78500
O608        O  0.33517643  0.95103513  0.66773554    -0.78700
C609        C  0.36319809  0.93669433  0.68545089     1.01900
O610        O  0.40366889  0.95154621  0.61828144    -0.86000
O611        O  0.38629240  0.88180778  0.59081033    -0.83100
C612        C  0.36486214  0.88315300  0.56312297     0.97500
O613        O  0.33289684  0.88956452  0.55786483    -0.83100
O614        O  0.28244068  0.93648706  0.56281703    -0.85700
C615        C  0.29523850  0.96898499  0.55897320     1.02000
O616        O  0.31955398  0.98456053  0.58080218    -0.78500
O617        O  0.37486017  0.99301013  0.63667801    -0.78700
C618        C  0.40035904  0.98517545  0.62748004     1.01900
Cr619      Cr  0.38333769  0.90428510  0.63114251     1.93700
Cr620      Cr  0.30691800  0.89128620  0.58785316     1.93200
Cr621      Cr  0.32791705  0.96712836  0.62441559     1.39100
O622        O  0.33961532  0.92026936  0.61473285    -1.23700
O623        O  0.35930284  0.92514698  0.83157920    -0.86000
O624        O  0.37532147  0.85503501  0.86204991    -0.83000
C625        C  0.39484546  0.83048447  0.87986668     0.97500
O626        O  0.42246947  0.84152325  0.90074562    -0.83100
O627        O  0.47175096  0.89140876  0.88469836    -0.85700
C628        C  0.48602091  0.92302588  0.88097473     1.02000
O629        O  0.47157381  0.95495578  0.88275611    -0.78500
O630        O  0.41080894  0.95057595  0.83464031    -0.78700
C631        C  0.38181321  0.93627233  0.81869092     1.01900
O632        O  0.34925275  0.95552573  0.89012810    -0.86000
O633        O  0.36719895  0.88663776  0.91893868    -0.83100
C634        C  0.39103859  0.88884850  0.94544439     0.97500
O635        O  0.42235711  0.89482630  0.94744030    -0.83100
O636        O  0.47175325  0.93880298  0.93702040    -0.85700
C637        C  0.46003164  0.97102297  0.94258612     1.02000
O638        O  0.43477171  0.98693273  0.92189096    -0.78500
O639        O  0.37559611  0.99494255  0.86743766    -0.78700
C640        C  0.35141980  0.98824474  0.87877053     1.01900
Cr641      Cr  0.36629383  0.90697199  0.87644193     1.93700
Cr642      Cr  0.44429469  0.89347316  0.91473785     1.93200
Cr643      Cr  0.42214699  0.96828027  0.87776894     1.39100
O644        O  0.41064643  0.92215479  0.88920457    -1.23700
O645        O  0.11456163  0.03569155  0.66956242    -0.86000
O646        O  0.04643411  0.05468582  0.64307416    -0.83000
C647        C  0.01989540  0.07242534  0.62628827     0.97500
O648        O  0.02254792  0.09621781  0.60555776    -0.83100
O649        O  0.07687758  0.15458239  0.62102681    -0.85700
C650        C  0.10693987  0.16927439  0.62590899     1.02000
O651        O  0.13153503  0.14806245  0.62429373    -0.78500
O652        O  0.13515042  0.09520057  0.67252138    -0.78700
C653        C  0.12607701  0.06611647  0.68553642     1.01900
O654        O  0.11466631  0.00320636  0.60957217    -0.86000
O655        O  0.04472083  0.02127982  0.58465409    -0.83100
C656        C  0.03662136  0.03887135  0.55863123     0.97500
O657        O  0.04709927  0.07272817  0.55657950    -0.83100
O658        O  0.09617261  0.12745292  0.56759139    -0.85700
C659        C  0.12026838  0.10707764  0.56303823     1.02000
O660        O  0.14042227  0.08716971  0.58532350    -0.78500
O661        O  0.15819086  0.03783424  0.63812837    -0.78700
C662        C  0.14682472  0.00656836  0.62400097     1.01900
Cr663      Cr  0.08113441  0.03217049  0.62578918     1.93700
Cr664      Cr  0.06308711  0.11061232  0.59029530     1.93200
Cr665      Cr  0.13819920  0.09116934  0.62909826     1.39100
O666        O  0.09358388  0.07795415  0.61499237    -1.23700
O667        O  0.13759295  0.03222235  0.82970267    -0.86000
O668        O  0.20453926  0.05511591  0.85737079    -0.83000
C669        C  0.22982843  0.07426661  0.87484962     0.97500
O670        O  0.22568517  0.09662652  0.89585547    -0.83100
O671        O  0.16864939  0.15187297  0.88029096    -0.85700
C672        C  0.13806804  0.16478723  0.87585547     1.02000
O673        O  0.11407319  0.14143339  0.87591923    -0.78500
O674        O  0.11448594  0.09050461  0.82746903    -0.78700
C675        C  0.12472989  0.06249897  0.81428055     1.01900
O676        O  0.13746589  0.99694029  0.88897253    -0.86000
O677        O  0.20661118  0.01894997  0.91545045    -0.83100
C678        C  0.21343043  0.03608242  0.94169100     0.97500
O679        O  0.20131675  0.06908968  0.94378147    -0.83100
O680        O  0.14942445  0.12084828  0.93197186    -0.85700
C681        C  0.12640146  0.09837884  0.93626485     1.02000
O682        O  0.10735380  0.07779213  0.91371471    -0.78500
O683        O  0.09328748  0.03006482  0.86016335    -0.78700
C684        C  0.10525840  0.99922302  0.87444888     1.01900
Cr685      Cr  0.17033205  0.02916320  0.87383505     1.93700
Cr686      Cr  0.18408391  0.10737970  0.91035358     1.93200
Cr687      Cr  0.11046051  0.08419826  0.87030489     1.39100
O688        O  0.15553017  0.07357363  0.88490119    -1.23700
C689        C  0.11817449  0.03217575  0.73166317    -0.27000
C690        C  0.12771490  0.06640453  0.71922896    -0.15000
C691        C  0.13537598  0.10008051  0.73835434     0.35600
C692        C  0.13228510  0.09882673  0.76883932    -0.26400
C693        C  0.12276920  0.06446219  0.78088072    -0.15700
C694        C  0.11580129  0.03090363  0.76206594     0.36700
N695        N  0.10583226  0.99541655  0.77362512    -0.89900
H696        H  0.11211316  0.00591974  0.71766020     0.17800
H697        H  0.13862701  0.12435527  0.78371674     0.17800
N698        N  0.14625584  0.13530383  0.72699883    -0.88900
H699        H  0.12386385  0.97408221  0.77283912     0.35200
H700        H  0.08135415  0.98703616  0.75843624     0.40300
H701        H  0.17080963  0.13024154  0.72462424     0.39900
H702        H  0.14974741  0.15751197  0.74362948     0.34800
C703        C  0.09319941  0.10307809  0.50482965    -0.27000
C704        C  0.12362283  0.10647173  0.53107473    -0.15000
C705        C  0.15621128  0.10914177  0.52617838     0.35600
C706        C  0.15439451  0.10120791  0.99405141    -0.26400
C707        C  0.12357575  0.09656020  0.96835578    -0.15700
C708        C  0.09495929  0.10215723  0.47396907     0.36700
N709        N  0.06362793  0.09785940  0.44781787    -0.89900
H710        H  0.06790271  0.10056762  0.50828096     0.17800
H711        H  0.17934740  0.10462593  0.99005285     0.17800
N712        N  0.18760495  0.11209602  0.55240305    -0.88900
H713        H  0.05160722  0.07180888  0.45064598     0.35200
H714        H  0.04260275  0.10777744  0.94942000     0.40300
H715        H  0.20036899  0.13782130  0.55008992     0.39900
H716        H  0.20225714  0.08414025  0.04982138     0.34800
C717        C  0.49638972  0.96498309  0.99812226    -0.27000
C718        C  0.47734752  0.98911743  0.97335399    -0.15000
C719        C  0.47700146  0.02931114  0.97828288     0.35600
C720        C  0.99439251  0.04525296  0.50531654    -0.26400
C721        C  0.01360700  0.02076239  0.52983680    -0.15700
C722        C  0.01140977  0.98021163  0.52543266     0.36700
N723        N  0.02984058  0.95337304  0.54929501    -0.89900
H724        H  0.49676048  0.93387315  0.99476693     0.17800
H725        H  0.99515101  0.07643457  0.50854995     0.17800
N726        N  0.45834619  0.05473094  0.95338586    -0.88900
H727        H  0.55982050  0.96007172  0.56172185     0.35200
H728        H  0.05649946  0.96000009  0.55620858     0.40300
H729        H  0.47620802  0.07446422  0.94935494     0.39900
H730        H  0.93773809  0.07094320  0.95902872     0.34800
C731        C  0.30329048  0.03266744  0.84915386    -0.27000
C732        C  0.32477255  0.01796560  0.87808366    -0.15000
C733        C  0.31779132  0.02821591  0.90587835     0.35600
C734        C  0.28889848  0.05155625  0.90437265    -0.26400
C735        C  0.26548276  0.06334743  0.87530261    -0.15700
C736        C  0.27325133  0.05448736  0.84750325     0.36700
N737        N  0.24997588  0.06629374  0.81754955    -0.89900
H738        H  0.30836539  0.02484232  0.82758368     0.17800
H739        H  0.28295696  0.05727055  0.92592164     0.17800
N740        N  0.33928806  0.01363484  0.93564528    -0.88900
H741        H  0.24141383  0.04144857  0.80384232     0.35200
H742        H  0.26412690  0.08332522  0.80649544     0.40300
H743        H  0.32342310  0.99761611  0.94562690     0.39900
H744        H  0.34937001  0.03730393  0.95035081     0.34800
C745        C  0.04926181  0.92486959  0.89860917    -0.27000
C746        C  0.01900686  0.92701730  0.87218929    -0.15000
C747        C  0.02103075  0.94496397  0.84470123     0.35600
C748        C  0.05172486  0.96402588  0.84493873    -0.26400
C749        C  0.08027163  0.96701504  0.87269727    -0.15700
C750        C  0.08004562  0.94508168  0.89925778     0.36700
N751        N  0.10963650  0.94602668  0.92746707    -0.89900
H752        H  0.04757627  0.91146027  0.91996825     0.17800
H753        H  0.05191066  0.97990274  0.82408682     0.17800
N754        N  0.49955890  0.93038205  0.82156318    -0.88900
H755        H  0.10526433  0.92805328  0.94466250     0.35200
H756        H  0.11203204  0.97425174  0.93644017     0.40300
H757        H  0.51064115  0.91512316  0.80695776     0.39900
H758        H  0.49094093  0.95709297  0.81093553     0.34800
C759        C  0.27176864  0.96745569  0.50131764    -0.27000
C760        C  0.27963400  0.98903009  0.52921586    -0.15000
C761        C  0.26928789  0.02792871  0.52848978     0.35600
C762        C  0.25268238  0.04255510  0.99660412    -0.26400
C763        C  0.23646323  0.01825284  0.97079755    -0.15700
C764        C  0.24160651  0.97790342  0.97395692     0.36700
N765        N  0.22599088  0.95224281  0.94811468    -0.89900
H766        H  0.28015395  0.93754004  0.50198553     0.17800
H767        H  0.24954079  0.07373279  0.99447421     0.17800
N768        N  0.27727828  0.05024382  0.55705352    -0.88900
H769        H  0.23128923  0.93582531  0.44752187     0.35200
H770        H  0.24592089  0.93624254  0.94375783     0.40300
H771        H  0.26363144  0.03787696  0.57101152     0.39900
H772        H  0.30391494  0.07200642  0.04575994     0.34800
C773        C  0.35663977  0.85720395  0.50984535    -0.27000
C774        C  0.37696283  0.87893110  0.53574960    -0.15000
C775        C  0.40498800  0.90140680  0.53313769     0.35600
C776        C  0.41189609  0.90238527  0.50451171    -0.26400
C777        C  0.38330924  0.88552831  0.97541924    -0.15700
C778        C  0.35361176  0.86609036  0.97808733     0.36700
N779        N  0.32920120  0.84778280  0.95113643    -0.89900
H780        H  0.33486583  0.84018498  0.51196707     0.17800
H781        H  0.43297393  0.92079373  0.50260076     0.17800
N782        N  0.42498643  0.92526812  0.55879188    -0.88900
H783        H  0.30846966  0.83539956  0.95713311     0.35200
H784        H  0.34216304  0.82494788  0.94432128     0.40300
H785        H  0.42252708  0.95412269  0.55123038     0.39900
H786        H  0.45125626  0.91752575  0.56430901     0.34800
C787        C  0.33869570  0.93890053  0.73000289    -0.27000
C788        C  0.36804479  0.93463782  0.71960678    -0.15000
C789        C  0.40109187  0.92886494  0.74201291     0.35600
C790        C  0.40426867  0.92802549  0.77396515    -0.26400
C791        C  0.37524330  0.93334551  0.78442971    -0.15700
C792        C  0.34197080  0.93851812  0.76220982     0.36700
N793        N  0.31193017  0.94439679  0.77230757    -0.89900
H794        H  0.31306436  0.94304489  0.71297656     0.17800
H795        H  0.42993114  0.92366306  0.79084520     0.17800
N796        N  0.43171424  0.92480528  0.73267254    -0.88900
H797        H  0.28936911  0.94738366  0.75287953     0.35200
H798        H  0.31542378  0.97070820  0.78451580     0.40300
H799        H  0.44328471  0.89821460  0.74109384     0.39900
H800        H  0.44930216  0.94685179  0.74349541     0.34800
C801        C  0.42632094  0.03687452  0.60264014    -0.27000
C802        C  0.42762045  0.01464958  0.62920740    -0.15000
C803        C  0.45651276  0.01839702  0.65665525     0.35600
C804        C  0.48472034  0.04233884  0.65638094    -0.26400
C805        C  0.48516525  0.06210362  0.62894417    -0.15700
C806        C  0.45465490  0.06045881  0.60215054     0.36700
N807        N  0.95338352  0.07534334  0.57180155    -0.89900
H808        H  0.40391001  0.03429456  0.58155224     0.17800
H809        H  0.50765051  0.04329079  0.67712272     0.17800
N810        N  0.45800448  0.99593688  0.68409952    -0.88900
H811        H  0.97328592  0.06489342  0.56383989     0.35200
H812        H  0.95666579  0.10518054  0.57584996     0.40300
H813        H  0.43793974  0.00548684  0.69232939     0.39900
H814        H  0.48143665  0.00115108  0.70214841     0.34800
C815        C  0.22852500  0.94546307  0.65174199    -0.27000
C816        C  0.22849553  0.92793300  0.62351976    -0.15000
C817        C  0.19819373  0.93021752  0.59708655     0.35600
C818        C  0.16982821  0.95311530  0.59833301    -0.26400
C819        C  0.17183170  0.97461467  0.62546447    -0.15700
C820        C  0.20060356  0.96888055  0.65302246     0.36700
N821        N  0.20226677  0.98868678  0.68172898    -0.89900
H822        H  0.25201158  0.94426764  0.67194439     0.17800
H823        H  0.14772674  0.95689799  0.57718756     0.17800
N824        N  0.19761420  0.91245954  0.56803283    -0.88900
H825        H  0.22534709  0.98185646  0.69962724     0.35200
H826        H  0.18169835  0.97830201  0.68900319     0.40300
H827        H  0.19386676  0.93420753  0.55101554     0.39900
H828        H  0.17611069  0.89370107  0.56103002     0.34800
C829        C  0.08774509  0.26035965  0.86508962    -0.27000
C830        C  0.11377008  0.28640015  0.88192444    -0.15000
C831        C  0.14815224  0.27217287  0.89578180     0.35600
C832        C  0.15597332  0.23310908  0.89200762    -0.26400
C833        C  0.13010999  0.20713405  0.87495722    -0.15700
C834        C  0.09553798  0.22114004  0.86149468     0.36700
N835        N  0.06823374  0.19576957  0.84361788    -0.89900
H836        H  0.06145952  0.27071770  0.85362673     0.17800
H837        H  0.18230033  0.22283291  0.90339746     0.17800
N838        N  0.17537821  0.29732710  0.91407998    -0.88900
H839        H  0.05785196  0.20722894  0.82095277     0.35200
H840        H  0.04849152  0.19560518  0.85409975     0.40300
H841        H  0.19537934  0.29754701  0.90390682     0.39900
H842        H  0.18538318  0.28565905  0.93670453     0.34800
C843        C  0.15389965  0.26653754  0.64633953    -0.27000
C844        C  0.12965737  0.29175499  0.62641379    -0.15000
C845        C  0.09681039  0.27649344  0.60777538     0.35600
C846        C  0.08924235  0.23697019  0.60942692    -0.26400
C847        C  0.11359331  0.21172252  0.62920931    -0.15700
C848        C  0.14636424  0.22700793  0.64791849     0.36700
N849        N  0.17225309  0.20338879  0.66946739    -0.89900
H850        H  0.17862473  0.27780342  0.66150859     0.17800
H851        H  0.06452591  0.22568071  0.59425336     0.17800
N852        N  0.07095872  0.30004462  0.58610782    -0.88900
H853        H  0.18164136  0.18306363  0.65688804     0.35200
H854        H  0.16067881  0.18893672  0.68413040     0.40300
H855        H  0.08254372  0.31435448  0.57136550     0.39900
H856        H  0.06157490  0.32047571  0.59858736     0.34800
C857        C  0.12391804  0.46679901  0.51944388    -0.27000
C858        C  0.11806465  0.43244832  0.53394796    -0.15000
C859        C  0.11367599  0.39733127  0.51683540     0.35600
C860        C  0.12713750  0.39992473  0.98845145    -0.26400
C861        C  0.12361664  0.43506864  0.97179602    -0.15700
C862        C  0.11877450  0.46965826  0.98684720     0.36700
N863        N  0.11655649  0.50652090  0.97155218    -0.89900
H864        H  0.12778803  0.49411081  0.53207427     0.17800
H865        H  0.13093161  0.37308668  0.97741147     0.17800
N866        N  0.10826383  0.36153803  0.53085690    -0.88900
H867        H  0.13655654  0.52431669  0.98548261     0.30400
H868        H  0.09266279  0.51912259  0.97037116     0.40300
H869        H  0.12824356  0.34250745  0.53057087     0.39900
H870        H  0.08456166  0.34959990  0.51686573     0.34800
C871        C  0.11601408  0.35960747  0.76709530    -0.27000
C872        C  0.12258625  0.39346805  0.78546945    -0.15000
C873        C  0.12491139  0.42925886  0.77102044     0.35600
C874        C  0.12192254  0.43041300  0.73888016    -0.26400
C875        C  0.11671783  0.39627738  0.72091184    -0.15700
C876        C  0.11352315  0.36055525  0.73526371     0.36700
N877        N  0.10722569  0.32484889  0.71794764    -0.89900
H878        H  0.11295007  0.33206770  0.77762152     0.17800
H879        H  0.12493682  0.45788706  0.72823393     0.17800
N880        N  0.12934126  0.46456553  0.78865412    -0.88900
H881        H  0.08491190  0.32811436  0.69835038     0.35200
H882        H  0.12845434  0.31891583  0.71014423     0.40300
H883        H  0.10812844  0.48253699  0.77781764     0.39900
H884        H  0.15202573  0.47822653  0.78737810     0.34800
C885        C  0.40297593  0.73419111  0.65313046    -0.27000
C886        C  0.38281126  0.70746450  0.63093093    -0.15000
C887        C  0.35063020  0.72039283  0.60970195     0.35600
C888        C  0.34021722  0.75922774  0.61035456    -0.26400
C889        C  0.36091284  0.78627932  0.63189279    -0.15700
C890        C  0.39244809  0.77302676  0.65386724     0.36700
N891        N  0.41436311  0.79890038  0.67680972    -0.89900
H892        H  0.42722447  0.72498331  0.67026933     0.17800
H893        H  0.31593509  0.76835947  0.59321532     0.17800
N894        N  0.32816295  0.69435269  0.58727796    -0.88900
H895        H  0.43893501  0.79963779  0.67366462     0.35200
H896        H  0.41736870  0.78754076  0.69915998     0.40300
H897        H  0.32432675  0.70553573  0.56473564     0.39900
H898        H  0.30397992  0.69358967  0.59120286     0.34800
C899        C  0.00199558  0.53147972  0.74425491    -0.27000
C900        C  0.48374431  0.50379615  0.71648676    -0.15000
C901        C  0.47835650  0.46460020  0.72277096     0.35600
C902        C  0.49660171  0.44929427  0.75242581    -0.26400
C903        C  0.02127135  0.47540377  0.77753921    -0.15700
C904        C  0.02035907  0.51596783  0.77361637     0.36700
N905        N  0.03838974  0.54127195  0.79917664    -0.89900
H906        H  0.00094815  0.56271659  0.74144917     0.17800
H907        H  0.49228348  0.41933840  0.75758509     0.17800
N908        N  0.45466024  0.44053680  0.69925259    -0.88900
H909        H  0.03451370  0.57036017  0.79234843     0.35200
H910        H  0.06507828  0.53605922  0.80438452     0.40300
H911        H  0.45333491  0.41267232  0.70806733     0.39900
H912        H  0.46504152  0.43737760  0.68078781     0.34800
C913        C  0.26444638  0.45445622  0.60004363    -0.27000
C914        C  0.26177221  0.43816121  0.62806500    -0.15000
C915        C  0.29158229  0.44006060  0.65552896     0.35600
C916        C  0.32157058  0.46037876  0.65487465    -0.26400
C917        C  0.32295569  0.47893363  0.62747949    -0.15700
C918        C  0.29464054  0.47481381  0.59949955     0.36700
N919        N  0.29559897  0.49394416  0.57125398    -0.89900
H920        H  0.24200468  0.45348772  0.57888634     0.17800
H921        H  0.34323175  0.46363094  0.67647658     0.17800
N922        N  0.29152483  0.42429353  0.68509200    -0.88900
H923        H  0.27229361  0.48920653  0.55293106     0.35200
H924        H  0.31543216  0.48114566  0.56434077     0.40300
H925        H  0.28609646  0.39461964  0.68224388     0.39900
H926        H  0.27218534  0.43801609  0.69210393     0.34800
C927        C  0.01857788  0.55994346  0.59282568    -0.27000
C928        C  0.01769260  0.57946914  0.61996574    -0.15000
C929        C  0.04794279  0.57998877  0.64666030     0.35600
C930        C  0.07629270  0.55578585  0.64741479    -0.26400
C931        C  0.07439595  0.53118076  0.62197174    -0.15700
C932        C  0.04638282  0.53535554  0.59374144     0.36700
N933        N  0.04506130  0.51281832  0.56650164    -0.89900
H934        H  0.49388173  0.55555968  0.57104387     0.17800
H935        H  0.09818244  0.55334771  0.66889140     0.17800
N936        N  0.04780966  0.60116961  0.67424195    -0.88900
H937        H  0.04324728  0.53189765  0.54791258     0.35200
H938        H  0.02233047  0.49589258  0.56046107     0.40300
H939        H  0.04605226  0.63061491  0.66843513     0.39900
H940        H  0.07147995  0.59751287  0.69230823     0.34800
C941        C  0.34347530  0.73498496  0.85725343    -0.27000
C942        C  0.36059225  0.71150807  0.88311072    -0.15000
C943        C  0.38881060  0.72711771  0.90736226     0.35600
C944        C  0.39996284  0.76532611  0.90523877    -0.26400
C945        C  0.38373317  0.78885439  0.87897724    -0.15700
C946        C  0.35482241  0.77334903  0.85475011     0.36700
N947        N  0.33747197  0.79612177  0.82741645    -0.89900
H948        H  0.32251571  0.72257297  0.83803228     0.17800
H949        H  0.42143691  0.77663530  0.92456926     0.17800
N950        N  0.40645538  0.70393153  0.93420907    -0.88900
H951        H  0.31660030  0.78064995  0.81212949     0.35200
H952        H  0.35532875  0.80100621  0.81525012     0.40300
H953        H  0.40488504  0.71813752  0.95433441     0.39900
H954        H  0.43280060  0.70232139  0.93574671     0.34800
C955        C  0.22313795  0.47475994  0.75284189    -0.27000
C956        C  0.22644036  0.48654038  0.72392975    -0.15000
C957        C  0.25061868  0.51585736  0.72328771     0.35600
C958        C  0.27139708  0.53236081  0.75153738    -0.26400
C959        C  0.26848910  0.52016740  0.78051702    -0.15700
C960        C  0.24361988  0.49146677  0.78115140     0.36700
N961        N  0.23874401  0.47978007  0.81031921    -0.89900
H962        H  0.20419655  0.45261335  0.75337061     0.17800
H963        H  0.29023375  0.55452503  0.75075008     0.17800
N964        N  0.25491075  0.52825811  0.69419307    -0.88900
H965        H  0.21998399  0.45778656  0.80656752     0.35200
H966        H  0.22867787  0.50358483  0.81901645     0.40300
H967        H  0.28087154  0.52351514  0.69540654     0.39900
H968        H  0.25023198  0.55808522  0.69191057     0.34800
C969        C  0.40479489  0.58342808  0.78369653    -0.27000
C970        C  0.38098051  0.60981571  0.78900934    -0.15000
C971        C  0.36042672  0.63262537  0.76348839     0.35600
C972        C  0.36452531  0.62890648  0.73368261    -0.26400
C973        C  0.38889633  0.60310132  0.72877752    -0.15700
C974        C  0.40872519  0.57967833  0.75394939     0.36700
N975        N  0.43243670  0.55131494  0.74928803    -0.89900
H976        H  0.42005866  0.56485802  0.80253743     0.17800
H977        H  0.34912676  0.64694162  0.71450480     0.17800
N978        N  0.33533659  0.65966455  0.76752383    -0.88900
H979        H  0.42472425  0.52407173  0.75502532     0.35200
H980        H  0.45723582  0.55742134  0.76499961     0.40300
H981        H  0.31080775  0.65201245  0.75201865     0.39900
H982        H  0.34177840  0.68721480  0.76124900     0.34800
C983        C  0.37199888  0.59824517  0.98756065    -0.27000
C984        C  0.37272867  0.56295736  0.97205313    -0.15000
C985        C  0.37061284  0.52778116  0.98762025     0.35600
C986        C  0.36326289  0.52927604  0.51777142    -0.26400
C987        C  0.36485579  0.56447236  0.53358532    -0.15700
C988        C  0.36751484  0.59949121  0.51825656     0.36700
N989        N  0.36927954  0.63620076  0.53365888    -0.89900
H990        H  0.37299973  0.62552650  0.97585177     0.17800
H991        H  0.36215691  0.50225287  0.52983486     0.17800
N992        N  0.37157063  0.49105125  0.97295562    -0.88900
H993        H  0.39096717  0.63626132  0.55405441     0.35200
H994        H  0.34681100  0.63913652  0.54028268     0.40300
H995        H  0.34886409  0.47570361  0.97201385     0.39900
H996        H  0.39299319  0.47553171  0.98715741     0.34800
C997        C  0.47944665  0.44511028  0.90470643    -0.27000
C998        C  0.48170126  0.43096130  0.87601354    -0.15000
C999        C  0.45255980  0.43609291  0.84844557     0.35600
C1000       C  0.42379908  0.45818218  0.84974908    -0.26400
C1001       C  0.42376684  0.47612350  0.87786983    -0.15700
C1002       C  0.45101227  0.46769293  0.90581345     0.36700
N1003       N  0.45050186  0.48328382  0.93531133    -0.89900
H1004       H  0.00300538  0.44976709  0.92721284     0.17800
H1005       H  0.40285027  0.46409064  0.82814578     0.17800
N1006       N  0.45266951  0.42228184  0.81832854    -0.88900
H1007       H  0.47300379  0.50015528  0.94468331     0.35200
H1008       H  0.45155099  0.46014442  0.95066923     0.40300
H1009       H  0.45640606  0.39230355  0.81973720     0.39900
H1010       H  0.47344835  0.43529621  0.81287172     0.34800
C1011       C  0.20483573  0.56415064  0.85213491    -0.27000
C1012       C  0.23442607  0.56428873  0.87931309    -0.15000
C1013       C  0.23141368  0.54799897  0.90719550     0.35600
C1014       C  0.20114414  0.52738324  0.90640342    -0.26400
C1015       C  0.17317576  0.52305377  0.87832358    -0.15700
C1016       C  0.17403201  0.54397218  0.85146044     0.36700
N1017       N  0.14477092  0.54254261  0.82308765    -0.89900
H1018       H  0.20664072  0.57705290  0.83064469     0.17800
H1019       H  0.20031041  0.51285399  0.92762227     0.17800
N1020       N  0.25973403  0.55081311  0.93612608    -0.88900
H1021       H  0.15028431  0.55780747  0.80505349     0.35200
H1022       H  0.12426056  0.55719313  0.82761565     0.40300
H1023       H  0.26746415  0.52273211  0.94406929     0.39900
H1024       H  0.25047309  0.56436981  0.95277179     0.34800
O1025       O  0.86075514  0.53508356  0.42145246    -0.86000
O1026       O  0.79402766  0.55771013  0.39392619    -0.83000
C1027       C  0.76793700  0.57582357  0.37678614     0.97500
O1028       O  0.77087778  0.59745894  0.35477056    -0.83100
O1029       O  0.82489801  0.65620419  0.37174531    -0.85700
C1030       C  0.85540290  0.67037675  0.37859353     1.02000
O1031       O  0.88083782  0.64864896  0.38001669    -0.78500
O1032       O  0.88103622  0.59454539  0.42637378    -0.78700
C1033       C  0.87080976  0.56512921  0.43814718     1.01900
O1034       O  0.86218943  0.50409632  0.36149028    -0.86000
O1035       O  0.79248790  0.52385156  0.33580837    -0.83100
C1036       C  0.78682191  0.54040696  0.30957135     0.97500
O1037       O  0.79938370  0.57332128  0.30764452    -0.83100
O1038       O  0.84845367  0.62947871  0.32154840    -0.85700
C1039       C  0.87376552  0.60997398  0.31855483     1.02000
O1040       O  0.89194742  0.58878919  0.34097525    -0.78500
O1041       O  0.90562306  0.53754288  0.39188940    -0.78700
C1042       C  0.89432742  0.50706278  0.37636951     1.01900
Cr1043     Cr  0.82847021  0.53357518  0.37728660     1.93700
Cr1044     Cr  0.81305706  0.61179368  0.34145476     1.93200
Cr1045     Cr  0.88684168  0.59156434  0.38379534     1.39100
O1046       O  0.84233090  0.57912106  0.36743311    -1.23700
O1047       O  0.90668505  0.55080630  0.08207290    -0.86000
O1048       O  0.96920111  0.54879252  0.12705538    -0.83000
C1049       C  0.98325045  0.58137699  0.12568090     0.97500
O1050       O  0.97056372  0.61223894  0.13294766    -0.83100
O1051       O  0.92310991  0.65908025  0.15396685    -0.85700
C1052       C  0.89702079  0.67055888  0.13174002     1.02000
O1053       O  0.87852296  0.64616895  0.11293607    -0.78500
O1054       O  0.85714105  0.57867218  0.08146754    -0.78700
C1055       C  0.87785147  0.56597618  0.06740408     1.01900
O1056       O  0.87487304  0.50625071  0.11829335    -0.86000
O1057       O  0.93665063  0.51349174  0.16912308    -0.83100
C1058       C  0.96338536  0.52833286  0.18877281     0.97500
O1059       O  0.97432078  0.56101903  0.18327708    -0.83100
O1060       O  0.92454586  0.60041884  0.19816224    -0.85700
C1061       C  0.89363831  0.60794964  0.19669745     1.02000
O1062       O  0.87016934  0.61475347  0.17056556    -0.78500
O1063       O  0.84812054  0.54705546  0.13968303    -0.78700
C1064       C  0.85041086  0.51387023  0.12908734     1.01900
Cr1065     Cr  0.92098730  0.53330762  0.12538770     1.93700
Cr1066     Cr  0.94522417  0.60652645  0.16450409     1.93200
Cr1067     Cr  0.86693269  0.59531933  0.12695364     1.39100
O1068       O  0.91072971  0.57884313  0.13843738    -1.23700
O1069       O  0.61225349  0.40580439  0.07958096    -0.86000
O1070       O  0.61559238  0.35371632  0.12796034    -0.83000
C1071       C  0.64120081  0.33247552  0.12879095     0.97500
O1072       O  0.67137772  0.34758031  0.13499358    -0.83100
O1073       O  0.72462940  0.40777117  0.15236153    -0.85700
C1074       C  0.72835103  0.42916483  0.13057851     1.02000
O1075       O  0.70207853  0.44525941  0.11170866    -0.78500
O1076       O  0.63431682  0.46456522  0.08182395    -0.78700
C1077       C  0.62199520  0.43410084  0.06623249     1.01900
O1078       O  0.58802387  0.46383289  0.11234443    -0.86000
O1079       O  0.60384603  0.41564886  0.16574100    -0.83100
C1080       C  0.62219737  0.39448330  0.18803659     0.97500
O1081       O  0.64692904  0.37452153  0.18455252    -0.83100
O1082       O  0.69380355  0.43262594  0.19748280    -0.85700
C1083       C  0.70470953  0.46624037  0.19495489     1.02000
O1084       O  0.70000168  0.48152426  0.16830774    -0.78500
O1085       O  0.63112054  0.49976029  0.13999760    -0.78700
C1086       C  0.59908851  0.49578583  0.12540889     1.01900
Cr1087     Cr  0.60800960  0.41066710  0.12250545     1.93700
Cr1088     Cr  0.68206425  0.39280023  0.16467971     1.93200
Cr1089     Cr  0.66576307  0.46926619  0.12635561     1.39100
O1090       O  0.65240532  0.42415428  0.13766192    -1.23700
O1091       O  0.63273415  0.40350295  0.42472208    -0.86000
O1092       O  0.63200912  0.34997288  0.37749015    -0.83000
C1093       C  0.60802880  0.32803297  0.37972351     0.97500
O1094       O  0.57790368  0.34190656  0.37528212    -0.83100
O1095       O  0.52177223  0.39645889  0.35806296    -0.85700
C1096       C  0.51740090  0.42233361  0.37652425     1.02000
O1097       O  0.54184636  0.44511694  0.39058233    -0.78500
O1098       O  0.61000516  0.46224881  0.41999638    -0.78700
C1099       C  0.62226732  0.43258507  0.43668263     1.01900
O1100       O  0.65669655  0.46030214  0.39143301    -0.86000
O1101       O  0.63910666  0.41131786  0.33789343    -0.83100
C1102       C  0.61939667  0.39032889  0.31593512     0.97500
O1103       O  0.59678054  0.36805639  0.32130653    -0.83100
O1104       O  0.54407326  0.41929467  0.30757980    -0.85700
C1105       C  0.53653677  0.45454014  0.30781307     1.02000
O1106       O  0.54581130  0.47466876  0.33264401    -0.78500
O1107       O  0.61470894  0.49351870  0.36030815    -0.78700
C1108       C  0.64652799  0.49071913  0.37593904     1.01900
Cr1109     Cr  0.63687362  0.40702138  0.38171353     1.93700
Cr1110     Cr  0.56251173  0.38389526  0.34301658     1.93200
Cr1111     Cr  0.57919837  0.46523746  0.37518019     1.39100
O1112       O  0.59202623  0.41873955  0.36665423    -1.23700
O1113       O  0.88705644  0.92726874  0.17276808    -0.86000
O1114       O  0.87220016  0.85698067  0.14433852    -0.83000
C1115       C  0.85291436  0.83154151  0.12735882     0.97500
O1116       O  0.82652755  0.84140097  0.10469752    -0.83100
O1117       O  0.77625737  0.89064744  0.11724198    -0.85700
C1118       C  0.76197530  0.92198501  0.12099561     1.02000
O1119       O  0.77561955  0.95409064  0.11797671    -0.78500
O1120       O  0.83458631  0.94985623  0.16800091    -0.78700
C1121       C  0.86321633  0.93580487  0.18477002     1.01900
O1122       O  0.89939073  0.95599396  0.11468846    -0.86000
O1123       O  0.88306987  0.88532253  0.08742063    -0.83100
C1124       C  0.86040462  0.88630706  0.06020389     0.97500
O1125       O  0.82879346  0.89259187  0.05674544    -0.83100
O1126       O  0.77851997  0.93716353  0.06433958    -0.85700
C1127       C  0.79064843  0.96978727  0.05979268     1.02000
O1128       O  0.81492804  0.98609959  0.08129604    -0.78500
O1129       O  0.87196143  0.99491846  0.13659465    -0.78700
C1130       C  0.89677121  0.98858353  0.12602096     1.01900
Cr1131     Cr  0.88200128  0.90770889  0.12876236     1.93700
Cr1132     Cr  0.80505848  0.89240998  0.08833385     1.93200
Cr1133     Cr  0.82538032  0.96784774  0.12501611     1.39100
O1134       O  0.83772574  0.92202979  0.11424195    -1.23700
O1135       O  0.85967593  0.92553197  0.33129174    -0.86000
O1136       O  0.87635841  0.85597149  0.36140183    -0.83000
C1137       C  0.89714956  0.83135692  0.37781563     0.97500
O1138       O  0.92556911  0.84224123  0.39781297    -0.83100
O1139       O  0.97363402  0.89439949  0.38239707    -0.85700
C1140       C  0.98729303  0.92644342  0.37879288     1.02000
O1141       O  0.97221345  0.95778729  0.38091627    -0.78500
O1142       O  0.91134504  0.94924422  0.33292470    -0.78700
C1143       C  0.88222122  0.93454058  0.31775970     1.01900
O1144       O  0.85153001  0.95631927  0.39103203    -0.86000
O1145       O  0.86994064  0.88620949  0.41893215    -0.83100
C1146       C  0.89452316  0.88586468  0.44501849     0.97500
O1147       O  0.92552303  0.89284666  0.44640751    -0.83100
O1148       O  0.97201992  0.94073337  0.43498369    -0.85700
C1149       C  0.95898708  0.97233937  0.44027946     1.02000
O1150       O  0.93406722  0.98815857  0.41916576    -0.78500
O1151       O  0.87482938  0.99403018  0.36467759    -0.78700
C1152       C  0.85210169  0.98831056  0.37794079     1.01900
Cr1153     Cr  0.86774806  0.90749670  0.37639906     1.93700
Cr1154     Cr  0.94641042  0.89444025  0.41277001     1.93200
Cr1155     Cr  0.92220470  0.96881500  0.37552765     1.39100
O1156       O  0.91193161  0.92269935  0.38795889    -1.23700
O1157       O  0.61539163  0.03317136  0.17263741    -0.86000
O1158       O  0.54791477  0.05412920  0.14605886    -0.83000
C1159       C  0.52216913  0.07363157  0.12999408     0.97500
O1160       O  0.52581512  0.09765808  0.10974334    -0.83100
O1161       O  0.58286788  0.15316996  0.12534610    -0.85700
C1162       C  0.61320288  0.16691273  0.12969622     1.02000
O1163       O  0.63717633  0.14457901  0.12829314    -0.78500
O1164       O  0.63795711  0.09184408  0.17592512    -0.78700
C1165       C  0.62749630  0.06344990  0.18863132     1.01900
O1166       O  0.61483625  0.00029193  0.11239993    -0.86000
O1167       O  0.54579163  0.02087575  0.08725819    -0.83100
C1168       C  0.53810049  0.03886948  0.06141827     0.97500
O1169       O  0.54857204  0.07288394  0.05991662    -0.83100
O1170       O  0.60064261  0.12454090  0.07154786    -0.85700
C1171       C  0.62415405  0.10310902  0.06701950     1.02000
O1172       O  0.64382867  0.08273657  0.08920696    -0.78500
O1173       O  0.65924004  0.03310967  0.14160530    -0.78700
C1174       C  0.64698270  0.00234139  0.12710114     1.01900
Cr1175     Cr  0.58214106  0.03058414  0.12869655     1.93700
Cr1176     Cr  0.56682640  0.10985222  0.09419816     1.93200
Cr1177     Cr  0.64133864  0.08724997  0.13278021     1.39100
O1178       O  0.59618435  0.07585104  0.11839047    -1.23700
O1179       O  0.63613053  0.03190657  0.33208262    -0.86000
O1180       O  0.70347726  0.05533793  0.35804822    -0.83000
C1181       C  0.72964721  0.07334601  0.37545426     0.97500
O1182       O  0.72646338  0.09544320  0.39703255    -0.83100
O1183       O  0.67002193  0.15159161  0.38166057    -0.85700
C1184       C  0.63959222  0.16471188  0.37751710     1.02000
O1185       O  0.61551194  0.14179481  0.37817994    -0.78500
O1186       O  0.61319751  0.09012301  0.32963361    -0.78700
C1187       C  0.62312668  0.06188854  0.31642742     1.01900
O1188       O  0.63789996  0.99749354  0.39161738    -0.86000
O1189       O  0.70731911  0.01998772  0.41636635    -0.83100
C1190       C  0.71476505  0.03704152  0.44262856     0.97500
O1191       O  0.70171110  0.06931144  0.44515180    -0.83100
O1192       O  0.65148247  0.12248100  0.43429109    -0.85700
C1193       C  0.62842548  0.10077909  0.43939005     1.02000
O1194       O  0.60888420  0.07973585  0.41736554    -0.78500
O1195       O  0.59278553  0.03044433  0.36405273    -0.78700
C1196       C  0.60551095  0.99942253  0.37766597     1.01900
Cr1197     Cr  0.67001765  0.02951195  0.37551464     1.93700
Cr1198     Cr  0.68513757  0.10749156  0.41191426     1.93200
Cr1199     Cr  0.61068873  0.08475154  0.37322564     1.39100
O1200       O  0.65574621  0.07392284  0.38690191    -1.23700
C1201       C  0.62266545  0.02950804  0.23575371    -0.27000
C1202       C  0.62822452  0.06452889  0.22198826    -0.15000
C1203       C  0.63021181  0.09949837  0.23907331     0.35600
C1204       C  0.62633430  0.09841252  0.26928172    -0.26400
C1205       C  0.62111828  0.06316617  0.28289411    -0.15700
C1206       C  0.61896259  0.02852498  0.26567005     0.36700
N1207       N  0.61263241  0.99208337  0.27834262    -0.89900
H1208       H  0.62074804  0.00236838  0.22310303     0.17800
H1209       H  0.62866409  0.12500019  0.28269616     0.17800
N1210       N  0.63566915  0.13593948  0.22573477    -0.88900
H1211       H  0.63334874  0.97354382  0.27923016     0.35200
H1212       H  0.58977679  0.98004462  0.26289993     0.40300
H1213       H  0.66109920  0.13581852  0.22450045     0.39900
H1214       H  0.63465492  0.15886461  0.24068162     0.34800
C1215       C  0.59682425  0.09192064  0.00990108    -0.27000
C1216       C  0.62688858  0.10146784  0.03499193    -0.15000
C1217       C  0.65796233  0.11038319  0.02873364     0.35600
C1218       C  0.65743713  0.10243213  0.49730292    -0.26400
C1219       C  0.62613520  0.10043307  0.47179824    -0.15700
C1220       C  0.59716658  0.09152211  0.97868902     0.36700
N1221       N  0.56626938  0.08047482  0.95387932    -0.89900
H1222       H  0.57284187  0.08445863  0.01448785     0.17800
H1223       H  0.68232014  0.10269741  0.49293774     0.17800
N1224       N  0.68916335  0.11917840  0.05399550    -0.88900
H1225       H  0.55947193  0.05229705  0.95843162     0.35200
H1226       H  0.54693218  0.12153643  0.45367198     0.40300
H1227       H  0.69745588  0.14701051  0.05029272     0.39900
H1228       H  0.70380332  0.08068231  0.55263499     0.34800
C1229       C  0.99189391  0.96539162  0.49633160    -0.27000
C1230       C  0.97456938  0.98998831  0.47127487    -0.15000
C1231       C  0.97491385  0.03019185  0.47606548     0.35600
C1232       C  0.49623890  0.04468642  0.00760510    -0.26400
C1233       C  0.51607058  0.02059003  0.03211820    -0.15700
C1234       C  0.51579628  0.98013870  0.02721017     0.36700
N1235       N  0.53606283  0.95379434  0.05059885    -0.89900
H1236       H  0.99121033  0.93421612  0.49304224     0.17800
H1237       H  0.49611153  0.07580154  0.01099052     0.17800
N1238       N  0.95696263  0.05587417  0.45107762    -0.88900
H1239       H  0.01814067  0.95368165  0.06881112     0.35200
H1240       H  0.56227019  0.96236588  0.05729995     0.40300
H1241       H  0.97529282  0.07504955  0.44716093     0.39900
H1242       H  0.42564929  0.04606804  0.47237090     0.34800
C1243       C  0.79978637  0.02660731  0.34769623    -0.27000
C1244       C  0.82488137  0.01774456  0.37667738    -0.15000
C1245       C  0.82137183  0.03389604  0.40437500     0.35600
C1246       C  0.79186090  0.05643076  0.40297288    -0.26400
C1247       C  0.76492924  0.06221750  0.37431130    -0.15700
C1248       C  0.76971501  0.04815405  0.34634242     0.36700
N1249       N  0.74336957  0.05433757  0.31662169    -0.89900
H1250       H  0.80234404  0.01460924  0.32618236     0.17800
H1251       H  0.78866493  0.06652219  0.42480641     0.17800
N1252       N  0.84726740  0.02645086  0.43411823    -0.88900
H1253       H  0.73478465  0.02726117  0.30655878     0.35200
H1254       H  0.75487604  0.06892503  0.30194078     0.40300
H1255       H  0.83498073  0.01300185  0.44872878     0.39900
H1256       H  0.85720466  0.05311155  0.44424377     0.34800
C1257       C  0.55247077  0.92092219  0.40123169    -0.27000
C1258       C  0.52315191  0.91950387  0.37392086    -0.15000
C1259       C  0.52526194  0.93714830  0.34630583     0.35600
C1260       C  0.55434585  0.96014866  0.34737452    -0.26400
C1261       C  0.58151720  0.96612447  0.37579815    -0.15700
C1262       C  0.58161795  0.94453553  0.40258806     0.36700
N1263       N  0.60954042  0.94939467  0.43172236    -0.89900
H1264       H  0.55065700  0.90795254  0.42270663     0.17800
H1265       H  0.55435648  0.97589251  0.32641838     0.17800
N1266       N  0.99703223  0.94264129  0.31906779    -0.88900
H1267       H  0.60563046  0.93144233  0.44912799     0.35200
H1268       H  0.60865017  0.97792359  0.43934136     0.40300
H1269       H  0.00606796  0.92916307  0.30224597     0.39900
H1270       H  0.98913322  0.97069408  0.31118081     0.34800
C1271       C  0.76318596  0.96511211  0.00242888    -0.27000
C1272       C  0.77475807  0.98860324  0.02939438    -0.15000
C1273       C  0.76865738  0.02873455  0.02709809     0.35600
C1274       C  0.74916007  0.04233104  0.49894602    -0.26400
C1275       C  0.73955442  0.02004521  0.47110667    -0.15700
C1276       C  0.75343788  0.98243747  0.47147526     0.36700
N1277       N  0.74663479  0.96003461  0.44306544    -0.89900
H1278       H  0.76832638  0.93421161  0.00411836     0.17800
H1279       H  0.73977006  0.07171785  0.49877892     0.17800
N1280       N  0.78036441  0.05317364  0.05450548    -0.88900
H1281       H  0.71637974  0.93417648  0.95148356     0.35200
H1282       H  0.75958554  0.97373697  0.42908416     0.40300
H1283       H  0.76656218  0.04506601  0.06971805     0.39900
H1284       H  0.76789515  0.07729362  0.55131611     0.34800
C1285       C  0.84318245  0.87283195  0.00280255    -0.27000
C1286       C  0.87001990  0.88109310  0.03114649    -0.15000
C1287       C  0.90414344  0.88787251  0.03030563     0.35600
C1288       C  0.91026521  0.88756677  0.00120536    -0.26400
C1289       C  0.88773808  0.87838738  0.47516293    -0.15700
C1290       C  0.85664294  0.86094617  0.47658338     0.36700
N1291       N  0.83160182  0.84530534  0.44869820    -0.89900
H1292       H  0.81695332  0.86700004  0.00325415     0.17800
H1293       H  0.93648255  0.89377739  0.00093673     0.17800
N1294       N  0.93217619  0.89686126  0.05860202    -0.88900
H1295       H  0.81005407  0.83384102  0.45384983     0.35200
H1296       H  0.84349026  0.82204825  0.44110528     0.40300
H1297       H  0.92697153  0.92401774  0.06644253     0.39900
H1298       H  0.95582933  0.89980511  0.05389118     0.34800
C1299       C  0.83904742  0.93631203  0.22943793    -0.27000
C1300       C  0.86811869  0.93053349  0.21884181    -0.15000
C1301       C  0.90057096  0.92083215  0.24098871     0.35600
C1302       C  0.90375420  0.92055856  0.27310331    -0.26400
C1303       C  0.87528545  0.92922134  0.28365188    -0.15700
C1304       C  0.84231184  0.93596426  0.26156437     0.36700
N1305       N  0.81267079  0.94411294  0.27173655    -0.89900
H1306       H  0.81366839  0.94246267  0.21266379     0.17800
H1307       H  0.92891997  0.91420383  0.29018557     0.17800
N1308       N  0.93035698  0.91232640  0.23112999    -0.88900
H1309       H  0.79020110  0.94791116  0.25237903     0.35200
H1310       H  0.81740383  0.97058879  0.28376103     0.40300
H1311       H  0.92526308  0.88608724  0.21878421     0.39900
H1312       H  0.95253086  0.90768533  0.25061459     0.34800
C1313       C  0.92358144  0.04218328  0.10388367    -0.27000
C1314       C  0.92456133  0.01783348  0.12919656    -0.15000
C1315       C  0.95424885  0.01812438  0.15618715     0.35600
C1316       C  0.98348579  0.04067378  0.15648534    -0.26400
C1317       C  0.98415098  0.06239985  0.12999543    -0.15700
C1318       C  0.95290789  0.06434523  0.10388780     0.36700
N1319       N  0.45391528  0.08643142  0.07848953    -0.89900
H1320       H  0.90061381  0.04218219  0.08315253     0.17800
H1321       H  0.00686842  0.03892450  0.17673923     0.17800
N1322       N  0.95541709  0.99341653  0.18237043    -0.88900
H1323       H  0.47199679  0.07537309  0.06846543     0.35200
H1324       H  0.46002367  0.11539501  0.08489147     0.40300
H1325       H  0.93641940  0.00312071  0.19189802     0.39900
H1326       H  0.97947162  0.99610765  0.20014384     0.34800
C1327       C  0.72769340  0.94037954  0.15468657    -0.27000
C1328       C  0.72791885  0.92383976  0.12623164    -0.15000
C1329       C  0.69749601  0.92570407  0.09988797     0.35600
C1330       C  0.66898998  0.94824902  0.10125781    -0.26400
C1331       C  0.67105342  0.96953003  0.12851259    -0.15700
C1332       C  0.69962483  0.96334775  0.15612510     0.36700
N1333       N  0.70109622  0.98266341  0.18498078    -0.89900
H1334       H  0.75118513  0.93918056  0.17488124     0.17800
H1335       H  0.64691863  0.95219140  0.08011176     0.17800
N1336       N  0.69703129  0.90813335  0.07078881    -0.88900
H1337       H  0.72410841  0.97566346  0.20289883     0.35200
H1338       H  0.68044035  0.97205397  0.19201851     0.40300
H1339       H  0.69295725  0.92991254  0.05376547     0.39900
H1340       H  0.67577058  0.88903652  0.06383703     0.34800
C1341       C  0.58920560  0.25958110  0.36664238    -0.27000
C1342       C  0.61529107  0.28581442  0.38275648    -0.15000
C1343       C  0.64978116  0.27204487  0.39662510     0.35600
C1344       C  0.65776165  0.23301419  0.39308843    -0.26400
C1345       C  0.63181317  0.20689762  0.37636544    -0.15700
C1346       C  0.59708439  0.22050652  0.36330350     0.36700
N1347       N  0.56964358  0.19481309  0.34616713    -0.89900
H1348       H  0.56279185  0.26970249  0.35539517     0.17800
H1349       H  0.68416338  0.22289194  0.40438086     0.17800
N1350       N  0.67681081  0.29761256  0.41467150    -0.88900
H1351       H  0.55861684  0.20591171  0.32345645     0.35200
H1352       H  0.55038724  0.19471120  0.35721661     0.40300
H1353       H  0.69679709  0.29786280  0.40448384     0.39900
H1354       H  0.68693915  0.28626593  0.43739957     0.34800
C1355       C  0.66020203  0.26507346  0.14676000    -0.27000
C1356       C  0.63519176  0.28967860  0.12680681    -0.15000
C1357       C  0.60246202  0.27342501  0.10889305     0.35600
C1358       C  0.59554039  0.23395519  0.11157235    -0.26400
C1359       C  0.62035221  0.20942279  0.13160144    -0.15700
C1360       C  0.65328547  0.22540354  0.14926891     0.36700
N1361       N  0.67987700  0.20245569  0.17071726    -0.89900
H1362       H  0.68498163  0.27694254  0.16128590     0.17800
H1363       H  0.57072903  0.22212816  0.09706340     0.17800
N1364       N  0.57589165  0.29589861  0.08697043    -0.88900
H1365       H  0.68848364  0.18150026  0.15810061     0.35200
H1366       H  0.66914595  0.18868804  0.18633456     0.40300
H1367       H  0.58689506  0.31022425  0.07183476     0.39900
H1368       H  0.56597018  0.31619253  0.09917859     0.34800
C1369       C  0.62619025  0.46759525  0.01842259    -0.27000
C1370       C  0.61984705  0.43289852  0.03236231    -0.15000
C1371       C  0.61482863  0.39825469  0.01430668     0.35600
C1372       C  0.62664582  0.39762760  0.48688937    -0.26400
C1373       C  0.62358508  0.43273801  0.47019938    -0.15700
C1374       C  0.61891604  0.46753154  0.48511323     0.36700
N1375       N  0.61610781  0.50423453  0.46949387    -0.89900
H1376       H  0.63033154  0.49457526  0.03151606     0.17800
H1377       H  0.62985654  0.37059608  0.47580961     0.17800
N1378       N  0.60818303  0.36164287  0.02641916    -0.88900
H1379       H  0.63609929  0.52232804  0.48303666     0.30400
H1380       H  0.59219953  0.51661846  0.46855715     0.40300
H1381       H  0.58518046  0.36374399  0.03229153     0.39900
H1382       H  0.62904542  0.35509159  0.04654487     0.34800
C1383       C  0.61400520  0.35800491  0.26502626    -0.27000
C1384       C  0.62104711  0.39193176  0.28338027    -0.15000
C1385       C  0.62504586  0.42745865  0.26911378     0.35600
C1386       C  0.62295274  0.42797895  0.23709874    -0.26400
C1387       C  0.61704698  0.39377626  0.21917626    -0.15700
C1388       C  0.61255888  0.35845284  0.23341453     0.36700
N1389       N  0.60619615  0.32265249  0.21623151    -0.89900
H1390       H  0.60997672  0.33074397  0.27545753     0.17800
H1391       H  0.62710889  0.45495373  0.22634394     0.17800
N1392       N  0.63066255  0.46288291  0.28696003    -0.88900
H1393       H  0.58429602  0.32613067  0.19628643     0.35200
H1394       H  0.62770713  0.31633241  0.20892681     0.40300
H1395       H  0.60813709  0.46827181  0.29302755     0.39900
H1396       H  0.63352201  0.48623915  0.27308617     0.34800
C1397       C  0.90590157  0.73864475  0.15240116    -0.27000
C1398       C  0.88621048  0.71217358  0.12968819    -0.15000
C1399       C  0.85432580  0.72492816  0.10788565     0.35600
C1400       C  0.84306679  0.76308101  0.10945237    -0.26400
C1401       C  0.86308505  0.78983647  0.13154194    -0.15700
C1402       C  0.89483932  0.77716717  0.15362925     0.36700
N1403       N  0.91610941  0.80336786  0.17694934    -0.89900
H1404       H  0.93000910  0.72919065  0.16960038     0.17800
H1405       H  0.81892487  0.77235051  0.09220428     0.17800
N1406       N  0.83345519  0.69943330  0.08379935    -0.88900
H1407       H  0.93904555  0.78980597  0.19060756     0.35200
H1408       H  0.90214965  0.81037305  0.19225355     0.40300
H1409       H  0.84724844  0.69527732  0.06790943     0.39900
H1410       H  0.80990664  0.71253756  0.07102195     0.34800
C1411       C  0.50653097  0.52546231  0.24131129    -0.27000
C1412       C  0.98263850  0.50884845  0.21839330    -0.15000
C1413       C  0.97810475  0.46924390  0.22386808     0.35600
C1414       C  0.99656072  0.45337825  0.25321060    -0.26400
C1415       C  0.51636323  0.47254333  0.27817902    -0.15700
C1416       C  0.52515940  0.50963037  0.27030410     0.36700
N1417       N  0.55365020  0.53090750  0.29130976    -0.89900
H1418       H  0.51412008  0.55403554  0.23570002     0.17800
H1419       H  0.99273269  0.42306750  0.25766229     0.17800
N1420       N  0.95509933  0.44527176  0.19978304    -0.88900
H1421       H  0.54399713  0.55725155  0.29653324     0.35200
H1422       H  0.57163438  0.53698520  0.27950127     0.40300
H1423       H  0.95427723  0.41701890  0.20802863     0.39900
H1424       H  0.96574945  0.44329016  0.18139936     0.34800
C1425       C  0.76659707  0.45509790  0.10083055    -0.27000
C1426       C  0.76374628  0.44065853  0.12936872    -0.15000
C1427       C  0.79272883  0.44583578  0.15717369     0.35600
C1428       C  0.82169052  0.46795598  0.15624794    -0.26400
C1429       C  0.82310587  0.48457306  0.12814084    -0.15700
C1430       C  0.79603131  0.47670628  0.09991700     0.36700
N1431       N  0.79745679  0.49293549  0.07077659    -0.89900
H1432       H  0.74486133  0.45138942  0.07935809     0.17800
H1433       H  0.84260568  0.47366941  0.17797419     0.17800
N1434       N  0.79283851  0.43118497  0.18711779    -0.88900
H1435       H  0.77510486  0.48532063  0.05225313     0.35200
H1436       H  0.81861053  0.48034528  0.06578458     0.40300
H1437       H  0.78931673  0.40112147  0.18535243     0.39900
H1438       H  0.77231519  0.44372774  0.19308872     0.34800
C1439       C  0.51646340  0.55451601  0.09492904    -0.27000
C1440       C  0.51571334  0.57344052  0.12236896    -0.15000
C1441       C  0.54619782  0.57380690  0.14889037     0.35600
C1442       C  0.57520918  0.55109098  0.14870558    -0.26400
C1443       C  0.57375661  0.52778746  0.12259479    -0.15700
C1444       C  0.54502957  0.53161705  0.09486381     0.36700
N1445       N  0.54393646  0.51048937  0.06701602    -0.89900
H1446       H  0.99357018  0.55762178  0.07256265     0.17800
H1447       H  0.59746379  0.54877363  0.16990681     0.17800
N1448       N  0.54597112  0.59360288  0.17704946    -0.88900
H1449       H  0.54089806  0.53039645  0.04874423     0.35200
H1450       H  0.52192921  0.49241579  0.06102819     0.40300
H1451       H  0.54335208  0.62322126  0.17189961     0.39900
H1452       H  0.56990875  0.59016622  0.19480751     0.34800
C1453       C  0.84414628  0.73697863  0.35611942    -0.27000
C1454       C  0.86250832  0.71267037  0.38093340    -0.15000
C1455       C  0.89284608  0.72706726  0.40362628     0.35600
C1456       C  0.90432764  0.76507652  0.40130903    -0.26400
C1457       C  0.88639832  0.78960823  0.37635565    -0.15700
C1458       C  0.85586249  0.77510605  0.35335790     0.36700
N1459       N  0.83706516  0.79876648  0.32705131    -0.89900
H1460       H  0.82166957  0.72546845  0.33788172     0.17800
H1461       H  0.92727331  0.77552056  0.41959335     0.17800
N1462       N  0.91227158  0.70288018  0.42914787    -0.88900
H1463       H  0.81518033  0.78397279  0.31259383     0.35200
H1464       H  0.85349432  0.80370519  0.31347700     0.40300
H1465       H  0.91337607  0.71663287  0.45024475     0.39900
H1466       H  0.93776908  0.70065402  0.42827158     0.34800
C1467       C  0.72105317  0.47471446  0.25262882    -0.27000
C1468       C  0.72437464  0.48703510  0.22381392    -0.15000
C1469       C  0.74754189  0.51752776  0.22339627     0.35600
C1470       C  0.76751026  0.53439837  0.25170154    -0.26400
C1471       C  0.76478380  0.52159688  0.28058546    -0.15700
C1472       C  0.74070438  0.49192180  0.28104637     0.36700
N1473       N  0.73589115  0.47964694  0.31010413    -0.89900
H1474       H  0.70285425  0.45166969  0.25301605     0.17800
H1475       H  0.78570473  0.55732451  0.25099184     0.17800
N1476       N  0.75169653  0.53083717  0.19447660    -0.88900
H1477       H  0.71768495  0.45700956  0.30618444     0.35200
H1478       H  0.72508622  0.50291171  0.31872047     0.40300
H1479       H  0.77787741  0.52743214  0.19589785     0.39900
H1480       H  0.74591482  0.56043925  0.19225101     0.34800
C1481       C  0.89169434  0.57710317  0.27687687    -0.27000
C1482       C  0.88039365  0.61099929  0.28789260    -0.15000
C1483       C  0.87165566  0.64370920  0.26784604     0.35600
C1484       C  0.87434479  0.64191405  0.23733622    -0.26400
C1485       C  0.88582882  0.60803913  0.22660676    -0.15700
C1486       C  0.89431568  0.57536094  0.24645207     0.36700
N1487       N  0.90512333  0.54007621  0.23546365    -0.89900
H1488       H  0.89759042  0.55144878  0.29158695     0.17800
H1489       H  0.86853865  0.66738747  0.22242114     0.17800
N1490       N  0.86081310  0.67908227  0.27863492    -0.88900
H1491       H  0.88759213  0.51813908  0.23657861     0.35200
H1492       H  0.92975021  0.53277574  0.25082804     0.40300
H1493       H  0.83608790  0.68614572  0.26333457     0.39900
H1494       H  0.87820358  0.70104156  0.27723925     0.34800
C1495       C  0.87630349  0.59987935  0.48861218    -0.27000
C1496       C  0.87006902  0.56517721  0.47117372    -0.15000
C1497       C  0.86167453  0.53122244  0.48526004     0.35600
C1498       C  0.87067527  0.53205729  0.01795498    -0.26400
C1499       C  0.86920636  0.56716565  0.03308332    -0.15700
C1500       C  0.86830971  0.60234657  0.01678201     0.36700
N1501       N  0.86729814  0.63897575  0.03141311    -0.89900
H1502       H  0.88219846  0.62636078  0.47824833     0.17800
H1503       H  0.87239363  0.50497083  0.03066690     0.17800
N1504       N  0.85474366  0.49506526  0.46861714    -0.88900
H1505       H  0.88920109  0.64123304  0.05152942     0.35200
H1506       H  0.84490307  0.63926146  0.03832497     0.40300
H1507       H  0.82986026  0.48556588  0.46785212     0.39900
H1508       H  0.87292994  0.47474658  0.48135886     0.34800
C1509       C  0.97569411  0.44568148  0.40405139    -0.27000
C1510       C  0.97825012  0.43155727  0.37549068    -0.15000
C1511       C  0.94910532  0.43615147  0.34781543     0.35600
C1512       C  0.91988801  0.45758797  0.34893342    -0.26400
C1513       C  0.91954947  0.47557478  0.37694543    -0.15700
C1514       C  0.94692455  0.46775423  0.40495856     0.36700
N1515       N  0.94637613  0.48385298  0.43428798    -0.89900
H1516       H  0.50343502  0.44498431  0.42873241     0.17800
H1517       H  0.89895700  0.46322690  0.32725463     0.17800
N1518       N  0.94973814  0.42263931  0.31776969    -0.88900
H1519       H  0.96859785  0.50126495  0.44326385     0.35200
H1520       H  0.94795073  0.46102015  0.45003404     0.40300
H1521       H  0.95393812  0.39276010  0.31918727     0.39900
H1522       H  0.97051368  0.43611049  0.31256339     0.34800
C1523       C  0.70318012  0.56662224  0.35288197    -0.27000
C1524       C  0.73309246  0.56598034  0.37979923    -0.15000
C1525       C  0.73085717  0.54690216  0.40700046     0.35600
C1526       C  0.70103629  0.52512346  0.40563795    -0.26400
C1527       C  0.67272846  0.52198704  0.37770361    -0.15700
C1528       C  0.67287921  0.54496003  0.35163223     0.36700
N1529       N  0.64349326  0.54406767  0.32333107    -0.89900
H1530       H  0.70440967  0.58131549  0.33187808     0.17800
H1531       H  0.70084791  0.50881528  0.42628428     0.17800
N1532       N  0.75964522  0.54777060  0.43570862    -0.88900
H1533       H  0.64838055  0.56114571  0.30587900     0.35200
H1534       H  0.62259258  0.55697457  0.32851559     0.40300
H1535       H  0.76771899  0.51925012  0.44177177     0.39900
H1536       H  0.75075964  0.55905337  0.45343765     0.34800
O1537       O  0.86032012  0.53611879  0.92148041    -0.86000
O1538       O  0.79247924  0.55360186  0.89256119    -0.83000
C1539       C  0.76775396  0.57539324  0.87777786     0.97500
O1540       O  0.77137558  0.59941623  0.85755770    -0.83100
O1541       O  0.82566386  0.65664540  0.87263314    -0.85700
C1542       C  0.85593448  0.67068851  0.87788741     1.02000
O1543       O  0.88067182  0.64868556  0.87810469    -0.78500
O1544       O  0.88076830  0.59591578  0.92563982    -0.78700
C1545       C  0.87113155  0.56641594  0.93777571     1.01900
O1546       O  0.86457209  0.50457482  0.86218402    -0.86000
O1547       O  0.79498974  0.52169494  0.83522577    -0.83100
C1548       C  0.78647963  0.54016196  0.80967698     0.97500
O1549       O  0.79562488  0.57474621  0.80832598    -0.83100
O1550       O  0.84657771  0.62820103  0.82069561    -0.85700
C1551       C  0.87209873  0.60873264  0.81790552     1.02000
O1552       O  0.89062894  0.58796810  0.84047443    -0.78500
O1553       O  0.90639864  0.53885547  0.89321001    -0.78700
C1554       C  0.89637514  0.50810071  0.87789761     1.01900
Cr1555     Cr  0.82918313  0.53264315  0.87700084     1.93700
Cr1556     Cr  0.81216433  0.61228155  0.84237766     1.93200
Cr1557     Cr  0.88633616  0.59195759  0.88327450     1.39100
O1558       O  0.84182802  0.57902442  0.86746018    -1.23700
O1559       O  0.90718061  0.54904107  0.58216990    -0.86000
O1560       O  0.97012301  0.54740487  0.62662484    -0.83000
C1561       C  0.98364676  0.58027978  0.62526336     0.97500
O1562       O  0.97063676  0.61082931  0.63254151    -0.83100
O1563       O  0.92339464  0.65662662  0.65413102    -0.85700
C1564       C  0.89708339  0.66763423  0.63185224     1.02000
O1565       O  0.87865573  0.64287339  0.61333932    -0.78500
O1566       O  0.85725472  0.57454700  0.58295206    -0.78700
C1567       C  0.87784176  0.56352370  0.56818090     1.01900
O1568       O  0.87650590  0.50366803  0.61919163    -0.86000
O1569       O  0.93926175  0.51108314  0.66912958    -0.83100
C1570       C  0.96574763  0.52640446  0.68878444     0.97500
O1571       O  0.97637330  0.55929582  0.68331687    -0.83100
O1572       O  0.92685048  0.59796531  0.69900124    -0.85700
C1573       C  0.89610185  0.60570651  0.69785582     1.02000
O1574       O  0.87243207  0.61241301  0.67186758    -0.78500
O1575       O  0.85118439  0.54355186  0.64262053    -0.78700
C1576       C  0.85290818  0.51066169  0.63127212     1.01900
Cr1577     Cr  0.92242690  0.53111014  0.62550964     1.93700
Cr1578     Cr  0.94649470  0.60448523  0.66474546     1.93200
Cr1579     Cr  0.86824156  0.59202461  0.62840212     1.39100
O1580       O  0.91212771  0.57630803  0.63909707    -1.23700
O1581       O  0.61264305  0.40653364  0.57961593    -0.86000
O1582       O  0.61349405  0.35711125  0.62871887    -0.83000
C1583       C  0.63829870  0.33482657  0.62935629     0.97500
O1584       O  0.66881014  0.34874505  0.63488962    -0.83100
O1585       O  0.72439948  0.40649003  0.65235368    -0.85700
C1586       C  0.72924929  0.42809749  0.63117883     1.02000
O1587       O  0.70372624  0.44525206  0.61219202    -0.78500
O1588       O  0.63635129  0.46462709  0.58104516    -0.78700
C1589       C  0.62327226  0.43397649  0.56609227     1.01900
O1590       O  0.58894278  0.46729530  0.61014355    -0.86000
O1591       O  0.60348702  0.42111822  0.66499980    -0.83100
C1592       C  0.62121400  0.39987154  0.68756848     0.97500
O1593       O  0.64529653  0.37847632  0.68439909    -0.83100
O1594       O  0.69439232  0.43371679  0.69687254    -0.85700
C1595       C  0.70546351  0.46723809  0.69441909     1.02000
O1596       O  0.70045723  0.48290444  0.66786739    -0.78500
O1597       O  0.63223962  0.50266669  0.63794878    -0.78700
C1598       C  0.60028807  0.49936204  0.62277242     1.01900
Cr1599     Cr  0.60778783  0.41391458  0.62200569     1.93700
Cr1600     Cr  0.68113103  0.39400842  0.66437892     1.93200
Cr1601     Cr  0.66699370  0.47042641  0.62567995     1.39100
O1602       O  0.65251180  0.42609615  0.63724057    -1.23700
O1603       O  0.63276332  0.40603996  0.92455433    -0.86000
O1604       O  0.63414190  0.35297164  0.87776534    -0.83000
C1605       C  0.61029162  0.33038053  0.87935903     0.97500
O1606       O  0.57996049  0.34373983  0.87500570    -0.83100
O1607       O  0.52230134  0.39716150  0.85576286    -0.85700
C1608       C  0.51711177  0.42287325  0.87399550     1.02000
O1609       O  0.54119848  0.44556625  0.88875169    -0.78500
O1610       O  0.60832776  0.46416664  0.91993101    -0.78700
C1611       C  0.62152859  0.43459328  0.93648921     1.01900
O1612       O  0.65635870  0.46371956  0.89224752    -0.86000
O1613       O  0.64071123  0.41502127  0.83825916    -0.83100
C1614       C  0.62158242  0.39355977  0.81628007     0.97500
O1615       O  0.60002663  0.37012615  0.82201443    -0.83100
O1616       O  0.54691033  0.41993071  0.80660088    -0.85700
C1617       C  0.53888709  0.45504401  0.80612409     1.02000
O1618       O  0.54640614  0.47537936  0.83091221    -0.78500
O1619       O  0.61432368  0.49626934  0.86058631    -0.78700
C1620       C  0.64594330  0.49410495  0.87685102     1.01900
Cr1621     Cr  0.63780865  0.41010803  0.88197530     1.93700
Cr1622     Cr  0.56446496  0.38521101  0.84236952     1.93200
Cr1623     Cr  0.57872468  0.46678796  0.87436565     1.39100
O1624       O  0.59283199  0.42071161  0.86633231    -1.23700
O1625       O  0.88632161  0.92344645  0.67245360    -0.86000
O1626       O  0.86933013  0.85274060  0.64420622    -0.83000
C1627       C  0.85002327  0.82781306  0.62649092     0.97500
O1628       O  0.82424975  0.83846366  0.60354792    -0.83100
O1629       O  0.77506944  0.89247016  0.61406391    -0.85700
C1630       C  0.76215133  0.92505639  0.61710740     1.02000
O1631       O  0.77753212  0.95587244  0.61401642    -0.78500
O1632       O  0.83455892  0.94943145  0.66582760    -0.78700
C1633       C  0.86266209  0.93533051  0.68353146     1.01900
O1634       O  0.90293675  0.94930317  0.61598274    -0.86000
O1635       O  0.88467368  0.87886321  0.58883466    -0.83100
C1636       C  0.86304784  0.87995508  0.56116718     0.97500
O1637       O  0.83131666  0.88744995  0.55627566    -0.83100
O1638       O  0.78248910  0.93622341  0.56154929    -0.85700
C1639       C  0.79614456  0.96823290  0.55774754     1.02000
O1640       O  0.82065366  0.98349481  0.57960668    -0.78500
O1641       O  0.87565358  0.99043454  0.63619675    -0.78700
C1642       C  0.90068490  0.98255873  0.62640495     1.01900
Cr1643     Cr  0.88243198  0.90248570  0.62924385     1.93700
Cr1644     Cr  0.80575158  0.89056620  0.58654779     1.93200
Cr1645     Cr  0.82811350  0.96606104  0.62299094     1.39100
O1646       O  0.83898405  0.91903594  0.61310776    -1.23700
O1647       O  0.85854244  0.92715780  0.82920854    -0.86000
O1648       O  0.87529497  0.85694214  0.85861147    -0.83000
C1649       C  0.89520753  0.83225597  0.87583349     0.97500
O1650       O  0.92256099  0.84316727  0.89706033    -0.83100
O1651       O  0.97082545  0.89350260  0.88148943    -0.85700
C1652       C  0.98476265  0.92504730  0.87728906     1.02000
O1653       O  0.97090768  0.95700564  0.88024374    -0.78500
O1654       O  0.91023598  0.95199636  0.83212818    -0.78700
C1655       C  0.88118339  0.93772811  0.81631987     1.01900
O1656       O  0.84843618  0.95633261  0.88787025    -0.86000
O1657       O  0.86704619  0.88655042  0.91604117    -0.83100
C1658       C  0.89081564  0.88770482  0.94266106     0.97500
O1659       O  0.92200308  0.89484384  0.94474000    -0.83100
O1660       O  0.97061202  0.94045208  0.93428907    -0.85700
C1661       C  0.95782985  0.97188773  0.94012979     1.02000
O1662       O  0.93303636  0.98805425  0.91918053    -0.78500
O1663       O  0.87426473  0.99577314  0.86467554    -0.78700
C1664       C  0.85003628  0.98885331  0.87592642     1.01900
Cr1665     Cr  0.86578373  0.90813654  0.87378177     1.93700
Cr1666     Cr  0.94381180  0.89490823  0.91180277     1.93200
Cr1667     Cr  0.92118671  0.96978246  0.87516998     1.39100
O1668       O  0.90997758  0.92355592  0.88655593    -1.23700
O1669       O  0.61332030  0.03704319  0.67166812    -0.86000
O1670       O  0.54609241  0.05582704  0.64341465    -0.83000
C1671       C  0.51993916  0.07412430  0.62672233     0.97500
O1672       O  0.52316608  0.09821183  0.60637166    -0.83100
O1673       O  0.57836960  0.15575844  0.62429567    -0.85700
C1674       C  0.60854107  0.17044233  0.62982511     1.02000
O1675       O  0.63328119  0.14932196  0.62842668    -0.78500
O1676       O  0.63414115  0.09655511  0.67570841    -0.78700
C1677       C  0.62338104  0.06773787  0.68773926     1.01900
O1678       O  0.61589750  0.00552214  0.61178740    -0.86000
O1679       O  0.54710362  0.02306178  0.58498930    -0.83100
C1680       C  0.54040414  0.04117146  0.55925931     0.97500
O1681       O  0.54931401  0.07581958  0.55804343    -0.83100
O1682       O  0.59967986  0.12952067  0.57166267    -0.85700
C1683       C  0.62317355  0.10806210  0.56713659     1.02000
O1684       O  0.64317625  0.08838452  0.58972480    -0.78500
O1685       O  0.65902310  0.03868432  0.64247487    -0.78700
C1686       C  0.64785722  0.00832480  0.62682846     1.01900
Cr1687     Cr  0.58161019  0.03373332  0.62719342     1.93700
Cr1688     Cr  0.56490355  0.11275011  0.59263215     1.93200
Cr1689     Cr  0.63940656  0.09238986  0.63306415     1.39100
O1690       O  0.59470453  0.07958200  0.61747406    -1.23700
O1691       O  0.63373063  0.03412591  0.83169741    -0.86000
O1692       O  0.70148456  0.05648886  0.85640317    -0.83000
C1693       C  0.72804160  0.07419973  0.87342501     0.97500
O1694       O  0.72572974  0.09614794  0.89541629    -0.83100
O1695       O  0.67065122  0.15306814  0.88045728    -0.85700
C1696       C  0.64053019  0.16690787  0.87640382     1.02000
O1697       O  0.61619839  0.14482110  0.87796075    -0.78500
O1698       O  0.61127312  0.09254742  0.82953419    -0.78700
C1699       C  0.62033057  0.06407108  0.81602325     1.01900
O1700       O  0.63710290  0.00070255  0.89251654    -0.86000
O1701       O  0.70662158  0.02164173  0.91570008    -0.83100
C1702       C  0.71352320  0.03846610  0.94208375     0.97500
O1703       O  0.70137305  0.07130892  0.94438536    -0.83100
O1704       O  0.65231761  0.12550684  0.93392052    -0.85700
C1705       C  0.62959984  0.10369897  0.93952642     1.02000
O1706       O  0.60973604  0.08286688  0.91767480    -0.78500
O1707       O  0.59178283  0.03350041  0.86512775    -0.78700
C1708       C  0.60460034  0.00300551  0.87960424     1.01900
Cr1709     Cr  0.66862445  0.03150509  0.87496468     1.93700
Cr1710     Cr  0.68528578  0.10940569  0.91103211     1.93200
Cr1711     Cr  0.61028260  0.08770493  0.87344403     1.39100
O1712       O  0.65520697  0.07627949  0.88635342    -1.23700
C1713       C  0.62068574  0.03284145  0.73518038    -0.27000
C1714       C  0.62210157  0.06849856  0.72050336    -0.15000
C1715       C  0.61885615  0.10318992  0.73622418     0.35600
C1716       C  0.61665044  0.10124353  0.76702783    -0.26400
C1717       C  0.61678273  0.06537401  0.78204379    -0.15700
C1718       C  0.61763235  0.03094179  0.76532466     0.36700
N1719       N  0.61525086  0.99372294  0.77877047    -0.89900
H1720       H  0.62194911  0.00586477  0.72318694     0.17800
H1721       H  0.61563512  0.12783811  0.77958007     0.17800
N1722       N  0.61739846  0.14007300  0.72089267    -0.88900
H1723       H  0.63756301  0.97791181  0.77959055     0.35200
H1724       H  0.59351060  0.97915557  0.76383579     0.40300
H1725       H  0.61532654  0.16259969  0.73582075     0.39900
H1726       H  0.59444776  0.14055202  0.70167081     0.34800
C1727       C  0.59396678  0.10311185  0.50925186    -0.27000
C1728       C  0.62527669  0.10522353  0.53474455    -0.15000
C1729       C  0.65726848  0.10405063  0.52860013     0.35600
C1730       C  0.65805637  0.11145546  0.99739700    -0.26400
C1731       C  0.62774649  0.10248535  0.97208808    -0.15700
C1732       C  0.59416747  0.09988630  0.47801620     0.36700
N1733       N  0.56188654  0.09715517  0.45275710    -0.89900
H1734       H  0.56905121  0.10367326  0.51350795     0.17800
H1735       H  0.68215438  0.11891808  0.99292370     0.17800
N1736       N  0.68957832  0.10553967  0.55392299    -0.88900
H1737       H  0.54845811  0.07264651  0.45662616     0.35200
H1738       H  0.54605468  0.09895165  0.95454511     0.40300
H1739       H  0.70372927  0.12965091  0.55048603     0.39900
H1740       H  0.70843429  0.09956732  0.05291556     0.34800
C1741       C  0.99029367  0.96396960  0.99643255    -0.27000
C1742       C  0.97324457  0.98890023  0.97148675    -0.15000
C1743       C  0.97326850  0.02898964  0.97678425     0.35600
C1744       C  0.49238109  0.04077194  0.50903280    -0.26400
C1745       C  0.52136830  0.02203035  0.52974813    -0.15700
C1746       C  0.53302775  0.98681572  0.52092170     0.36700
N1747       N  0.56369339  0.96764889  0.54048004    -0.89900
H1748       H  0.98984718  0.93287225  0.99275784     0.17800
H1749       H  0.48381692  0.06833512  0.51551469     0.17800
N1750       N  0.95591726  0.05506631  0.95188757    -0.88900
H1751       H  0.02070227  0.95596117  0.56857099     0.35200
H1752       H  0.58475923  0.98696323  0.54514593     0.40300
H1753       H  0.97450269  0.07445922  0.94872350     0.39900
H1754       H  0.44037300  0.07030503  0.96101163     0.34800
C1755       C  0.79708248  0.02581928  0.84520980    -0.27000
C1756       C  0.82263296  0.01801401  0.87419312    -0.15000
C1757       C  0.81947445  0.03484655  0.90172021     0.35600
C1758       C  0.79015524  0.05757620  0.90023567    -0.26400
C1759       C  0.76289972  0.06262798  0.87171396    -0.15700
C1760       C  0.76707066  0.04749732  0.84380186     0.36700
N1761       N  0.74027944  0.05280007  0.81419228    -0.89900
H1762       H  0.79932396  0.01303989  0.82384698     0.17800
H1763       H  0.78734600  0.06834087  0.92203231     0.17800
N1764       N  0.84543585  0.02763311  0.93146524    -0.88900
H1765       H  0.73161890  0.02543801  0.80480601     0.35200
H1766       H  0.75140377  0.06675259  0.79893230     0.40300
H1767       H  0.83317209  0.01453178  0.94624418     0.39900
H1768       H  0.85552180  0.05435084  0.94134399     0.34800
C1769       C  0.54867490  0.93266649  0.90767060    -0.27000
C1770       C  0.52175766  0.92562517  0.87921799    -0.15000
C1771       C  0.52637896  0.93757981  0.85082943     0.35600
C1772       C  0.55583154  0.95965086  0.85137555    -0.26400
C1773       C  0.58068725  0.97056777  0.87999368    -0.15700
C1774       C  0.57800685  0.95554499  0.90841619     0.36700
N1775       N  0.60320899  0.96637667  0.93796818    -0.89900
H1776       H  0.54470186  0.92447565  0.92965993     0.17800
H1777       H  0.55785517  0.97091723  0.82941524     0.17800
N1778       N  0.99075395  0.94710898  0.81737043    -0.88900
H1779       H  0.59730205  0.95305839  0.95664978     0.35200
H1780       H  0.60109208  0.99625493  0.94087876     0.40300
H1781       H  0.99702947  0.93498238  0.79846887     0.39900
H1782       H  0.98479921  0.97634759  0.81228002     0.34800
C1783       C  0.77353852  0.96672391  0.50025586    -0.27000
C1784       C  0.78094604  0.98828591  0.52810355    -0.15000
C1785       C  0.76972346  0.02676393  0.52751315     0.35600
C1786       C  0.74973083  0.04435748  0.99791124    -0.26400
C1787       C  0.73645751  0.02061547  0.97111869    -0.15700
C1788       C  0.74417430  0.98075462  0.97328961     0.36700
N1789       N  0.73197286  0.95583679  0.94639388    -0.89900
H1790       H  0.78295423  0.93720004  0.50116217     0.17800
H1791       H  0.74451367  0.07521220  0.99638701     0.17800
N1792       N  0.77775215  0.04913554  0.55605993    -0.88900
H1793       H  0.75761145  0.93242145  0.44798226     0.35200
H1794       H  0.75367228  0.94253925  0.94287395     0.40300
H1795       H  0.76481837  0.03629318  0.57038497     0.39900
H1796       H  0.77405045  0.08215825  0.04853552     0.34800
C1797       C  0.85021243  0.85940499  0.50559300    -0.27000
C1798       C  0.87445696  0.87425045  0.53326911    -0.15000
C1799       C  0.90682406  0.88858932  0.53231480     0.35600
C1800       C  0.91313595  0.89027834  0.50334079    -0.26400
C1801       C  0.88298629  0.88182862  0.97261568    -0.15700
C1802       C  0.84918807  0.87320458  0.97361306     0.36700
N1803       N  0.82089137  0.86578420  0.94515853    -0.89900
H1804       H  0.82560447  0.84761579  0.50645399     0.17800
H1805       H  0.93745533  0.90299492  0.50266546     0.17800
N1806       N  0.93229497  0.90365787  0.56021828    -0.88900
H1807       H  0.79748418  0.86143858  0.95003724     0.35200
H1808       H  0.82628892  0.83973736  0.93571487     0.40300
H1809       H  0.92211239  0.92914818  0.56638360     0.39900
H1810       H  0.95517014  0.91171150  0.55558831     0.34800
C1811       C  0.83848036  0.94095284  0.72796807    -0.27000
C1812       C  0.86748534  0.93375669  0.71762023    -0.15000
C1813       C  0.90012604  0.92598018  0.74001153     0.35600
C1814       C  0.90316430  0.92561292  0.77191998    -0.26400
C1815       C  0.87458369  0.93407317  0.78225173    -0.15700
C1816       C  0.84181774  0.94173955  0.76010788     0.36700
N1817       N  0.81250660  0.95160046  0.77024603    -0.89900
H1818       H  0.81315938  0.94687416  0.71099483     0.17800
H1819       H  0.92833151  0.91919103  0.78887745     0.17800
N1820       N  0.93049240  0.91951005  0.73071411    -0.88900
H1821       H  0.79023530  0.95622000  0.75086395     0.35200
H1822       H  0.81826771  0.97805589  0.78223464     0.40300
H1823       H  0.94071588  0.89238015  0.73919074     0.39900
H1824       H  0.94912828  0.94061803  0.74147608     0.34800
C1825       C  0.92739808  0.03251187  0.60116784    -0.27000
C1826       C  0.92803345  0.01179603  0.62820080    -0.15000
C1827       C  0.95583462  0.01753633  0.65625721     0.35600
C1828       C  0.98411437  0.04145473  0.65598827    -0.26400
C1829       C  0.98517265  0.05984859  0.62819059    -0.15700
C1830       C  0.95536174  0.05660025  0.60084001     0.36700
N1831       N  0.45242191  0.08014074  0.57344058    -0.89900
H1832       H  0.90563915  0.02864891  0.57971512     0.17800
H1833       H  0.00649802  0.04371480  0.67711767     0.17800
N1834       N  0.95620355  0.99717957  0.68438161    -0.88900
H1835       H  0.47187585  0.06948528  0.56492111     0.35200
H1836       H  0.45662086  0.10972530  0.57825023     0.40300
H1837       H  0.93522013  0.00727851  0.69108003     0.39900
H1838       H  0.97887149  0.00386972  0.70287217     0.34800
C1839       C  0.72786089  0.94403101  0.65106686    -0.27000
C1840       C  0.72794633  0.92998171  0.62171479    -0.15000
C1841       C  0.69853442  0.93646015  0.59508724     0.35600
C1842       C  0.67078172  0.95924285  0.59769678    -0.26400
C1843       C  0.67256972  0.97685369  0.62639181    -0.15700
C1844       C  0.70047795  0.96748739  0.65371026     0.36700
N1845       N  0.70173184  0.98341146  0.68372123    -0.89900
H1846       H  0.75081027  0.93988316  0.67142284     0.17800
H1847       H  0.64939227  0.96605406  0.57664553     0.17800
N1848       N  0.69842599  0.92317853  0.56476165    -0.88900
H1849       H  0.72413003  0.97406769  0.70134432     0.35200
H1850       H  0.68035654  0.97225315  0.68939003     0.40300
H1851       H  0.69630283  0.94735840  0.55017555     0.39900
H1852       H  0.67620383  0.90591897  0.55530586     0.34800
C1853       C  0.59157565  0.26234844  0.86458493    -0.27000
C1854       C  0.61779830  0.28820972  0.88112494    -0.15000
C1855       C  0.65239074  0.27428404  0.89422861     0.35600
C1856       C  0.65992445  0.23510431  0.89074475    -0.26400
C1857       C  0.63358109  0.20920962  0.87437227    -0.15700
C1858       C  0.59916615  0.22331004  0.86086714     0.36700
N1859       N  0.57177967  0.19809631  0.84290850    -0.89900
H1860       H  0.56524017  0.27272927  0.85339318     0.17800
H1861       H  0.68626432  0.22469064  0.90186988     0.17800
N1862       N  0.67998760  0.29977728  0.91141774    -0.88900
H1863       H  0.56151817  0.20961993  0.82025427     0.35200
H1864       H  0.55199377  0.19802112  0.85333640     0.40300
H1865       H  0.69929115  0.29966147  0.90042715     0.39900
H1866       H  0.69088846  0.28862566  0.93413060     0.34800
C1867       C  0.65534609  0.26781762  0.64874328    -0.27000
C1868       C  0.63109287  0.29245392  0.62811669    -0.15000
C1869       C  0.59800525  0.27695044  0.61031152     0.35600
C1870       C  0.59049219  0.23765228  0.61290708    -0.26400
C1871       C  0.61498701  0.21286851  0.63298929    -0.15700
C1872       C  0.64771297  0.22850170  0.65145468     0.36700
N1873       N  0.67339655  0.20550370  0.67383064    -0.89900
H1874       H  0.68013387  0.27939223  0.66352618     0.17800
H1875       H  0.56567988  0.22611215  0.59813875     0.17800
N1876       N  0.57173741  0.29999922  0.58858863    -0.88900
H1877       H  0.68285811  0.18439057  0.66198589     0.35200
H1878       H  0.66159392  0.19196205  0.68877608     0.40300
H1879       H  0.58281884  0.31402331  0.57332347     0.39900
H1880       H  0.56243055  0.32058935  0.60099669     0.34800
C1881       C  0.61739881  0.46659344  0.51578236    -0.27000
C1882       C  0.62063892  0.43176197  0.53250224    -0.15000
C1883       C  0.62521266  0.39688534  0.51789097     0.35600
C1884       C  0.61664021  0.39920467  0.98352205    -0.26400
C1885       C  0.62309654  0.43396550  0.96995574    -0.15700
C1886       C  0.62795069  0.46838798  0.98772754     0.36700
N1887       N  0.63552236  0.50421692  0.97496388    -0.89900
H1888       H  0.61406132  0.49368355  0.52675686     0.17800
H1889       H  0.61226317  0.37263564  0.96986846     0.17800
N1890       N  0.62945960  0.36093493  0.53468230    -0.88900
H1891       H  0.65956373  0.51455710  0.98965034     0.30400
H1892       H  0.61632469  0.52427449  0.97537808     0.40300
H1893       H  0.65357695  0.34921543  0.53550498     0.39900
H1894       H  0.60987209  0.34187226  0.52191210     0.34800
C1895       C  0.60935303  0.36420990  0.76305563    -0.27000
C1896       C  0.62228186  0.39587983  0.78333905    -0.15000
C1897       C  0.63087044  0.43047060  0.77055324     0.35600
C1898       C  0.62780713  0.43220020  0.73839117    -0.26400
C1899       C  0.61594654  0.40008644  0.71859765    -0.15700
C1900       C  0.60632128  0.36591655  0.73109869     0.36700
N1901       N  0.59317394  0.33260809  0.71175866    -0.89900
H1902       H  0.60157923  0.33771837  0.77208761     0.17800
H1903       H  0.63582677  0.45835655  0.72907690     0.17800
N1904       N  0.64167302  0.46425398  0.78980385    -0.88900
H1905       H  0.57132920  0.34105705  0.69313358     0.35200
H1906       H  0.61228704  0.32280985  0.70242223     0.40300
H1907       H  0.62395265  0.48638161  0.78000898     0.39900
H1908       H  0.66606362  0.47293405  0.78867045     0.34800
C1909       C  0.90050845  0.73411042  0.65521405    -0.27000
C1910       C  0.88571961  0.70905295  0.62958989    -0.15000
C1911       C  0.85756922  0.72284199  0.60413274     0.35600
C1912       C  0.84513321  0.76071381  0.60467221    -0.26400
C1913       C  0.86007510  0.78596302  0.63009335    -0.15700
C1914       C  0.88794167  0.77210129  0.65590947     0.36700
N1915       N  0.90356435  0.79653967  0.68274965    -0.89900
H1916       H  0.92155498  0.72377300  0.67526480     0.17800
H1917       H  0.82420096  0.77071381  0.58437079     0.17800
N1918       N  0.84152968  0.69874640  0.57735831    -0.88900
H1919       H  0.92403136  0.78223716  0.69938345     0.35200
H1920       H  0.88457165  0.80187455  0.69355749     0.40300
H1921       H  0.84364607  0.71277403  0.55733685     0.39900
H1922       H  0.81499654  0.69602199  0.57492266     0.34800
C1923       C  0.50822178  0.52617706  0.73950060    -0.27000
C1924       C  0.98461775  0.50748266  0.71867317    -0.15000
C1925       C  0.98619413  0.46692830  0.72227527     0.35600
C1926       C  0.00466379  0.45132957  0.75169198    -0.26400
C1927       C  0.52012298  0.47230403  0.77558971    -0.15700
C1928       C  0.52649342  0.51084137  0.76886923     0.36700
N1929       N  0.55199433  0.53402836  0.79164094    -0.89900
H1930       H  0.51289884  0.55619599  0.73487758     0.17800
H1931       H  0.00563376  0.42010564  0.75449913     0.17800
N1932       N  0.97006765  0.44174531  0.69605304    -0.88900
H1933       H  0.55342753  0.56190187  0.78298886     0.35200
H1934       H  0.57631521  0.52121887  0.79490139     0.40300
H1935       H  0.94304497  0.44375062  0.69114971     0.39900
H1936       H  0.97642653  0.41281003  0.70216588     0.34800
C1937       C  0.76936809  0.45146330  0.60232973    -0.27000
C1938       C  0.76522330  0.43848213  0.63077511    -0.15000
C1939       C  0.79341879  0.44450325  0.65905101     0.35600
C1940       C  0.82275740  0.46629479  0.65854502    -0.26400
C1941       C  0.82549081  0.48141683  0.63036616    -0.15700
C1942       C  0.79928775  0.47246776  0.60182070     0.36700
N1943       N  0.80193523  0.48728009  0.57265289    -0.89900
H1944       H  0.74822526  0.44713482  0.58052507     0.17800
H1945       H  0.84295552  0.47282319  0.68055632     0.17800
N1946       N  0.79232110  0.43099969  0.68895907    -0.88900
H1947       H  0.78003694  0.47923013  0.55385540     0.35200
H1948       H  0.82342654  0.47402706  0.56871992     0.40300
H1949       H  0.78892909  0.40083819  0.68776593     0.39900
H1950       H  0.77126395  0.44368324  0.69380801     0.34800
C1951       C  0.51733312  0.55721270  0.59128036    -0.27000
C1952       C  0.51638325  0.57660714  0.61849357    -0.15000
C1953       C  0.54735082  0.57885403  0.64449052     0.35600
C1954       C  0.57663400  0.55631679  0.64463016    -0.26400
C1955       C  0.57522936  0.53197299  0.61909969    -0.15700
C1956       C  0.54644767  0.53511836  0.59132226     0.36700
N1957       N  0.54592307  0.51412428  0.56356557    -0.89900
H1958       H  0.99547502  0.55945547  0.57220003     0.17800
H1959       H  0.59911615  0.55502019  0.66571928     0.17800
N1960       N  0.54755130  0.60058834  0.67189969    -0.88900
H1961       H  0.54261864  0.53407619  0.54527783     0.35200
H1962       H  0.52425723  0.49555433  0.55749593     0.40300
H1963       H  0.54411766  0.62976512  0.66533434     0.39900
H1964       H  0.57194146  0.59863008  0.68927294     0.34800
C1965       C  0.84138907  0.73820102  0.85798368    -0.27000
C1966       C  0.86340685  0.71288003  0.87989815    -0.15000
C1967       C  0.89634743  0.72648533  0.89886276     0.35600
C1968       C  0.90668246  0.76467626  0.89581875    -0.26400
C1969       C  0.88491936  0.79039409  0.87397174    -0.15700
C1970       C  0.85187155  0.77665732  0.85449974     0.36700
N1971       N  0.82903880  0.80152121  0.83124456    -0.89900
H1972       H  0.81667526  0.72738459  0.84246386     0.17800
H1973       H  0.93190772  0.77429825  0.91121886     0.17800
N1974       N  0.91960770  0.70135656  0.92137819    -0.88900
H1975       H  0.80558021  0.78727824  0.81956997     0.35200
H1976       H  0.84116085  0.80728758  0.81425584     0.40300
H1977       H  0.92523507  0.71405342  0.94363988     0.39900
H1978       H  0.94290280  0.69953683  0.91594275     0.34800
C1979       C  0.72431712  0.47241353  0.75227720    -0.27000
C1980       C  0.72556075  0.48737258  0.72343745    -0.15000
C1981       C  0.74682656  0.51988936  0.72316952     0.35600
C1982       C  0.76620057  0.53664723  0.75178263    -0.26400
C1983       C  0.76523291  0.52135994  0.78053822    -0.15700
C1984       C  0.74381524  0.48908732  0.78085066     0.36700
N1985       N  0.74162424  0.47357198  0.80999798    -0.89900
H1986       H  0.70787296  0.44761864  0.75264405     0.17800
H1987       H  0.78281470  0.56136114  0.75160049     0.17800
N1988       N  0.74927724  0.53546898  0.69413456    -0.88900
H1989       H  0.72582323  0.44876622  0.80602545     0.35200
H1990       H  0.72942607  0.49433859  0.81989534     0.40300
H1991       H  0.76201429  0.51497729  0.68453761     0.39900
H1992       H  0.76497968  0.56036020  0.69828420     0.34800
C1993       C  0.89388542  0.57673311  0.77835517    -0.27000
C1994       C  0.87925090  0.60961182  0.78753597    -0.15000
C1995       C  0.86912198  0.64119040  0.76644175     0.35600
C1996       C  0.87363555  0.63916575  0.73665104    -0.26400
C1997       C  0.88847063  0.60632086  0.72778476    -0.15700
C1998       C  0.89858963  0.57488155  0.74877574     0.36700
N1999       N  0.91304126  0.54061121  0.73981291    -0.89900
H2000       H  0.90107347  0.55192865  0.79392378     0.17800
H2001       H  0.86642034  0.66368560  0.72078706     0.17800
N2002       N  0.85500831  0.67568285  0.77540455    -0.88900
H2003       H  0.89679343  0.51719178  0.74057483     0.35200
H2004       H  0.93737776  0.53571626  0.75661973     0.40300
H2005       H  0.83037147  0.68044622  0.75900506     0.39900
H2006       H  0.87116553  0.69898987  0.77414733     0.34800
C2007       C  0.86949415  0.60172983  0.98586393    -0.27000
C2008       C  0.87181930  0.56647152  0.97093950    -0.15000
C2009       C  0.87209759  0.53129700  0.98724099     0.35600
C2010       C  0.86106149  0.53237589  0.51633080    -0.26400
C2011       C  0.86852627  0.56662123  0.53387187    -0.15700
C2012       C  0.87601070  0.60074100  0.51981069     0.36700
N2013       N  0.88479668  0.63622382  0.53717809    -0.89900
H2014       H  0.86862839  0.62892245  0.97350498     0.17800
H2015       H  0.85641296  0.50579849  0.52735737     0.17800
N2016       N  0.87508098  0.49466876  0.97321015    -0.88900
H2017       H  0.90695194  0.63158703  0.55667628     0.35200
H2018       H  0.86405128  0.64336203  0.54531592     0.40300
H2019       H  0.85349091  0.47762939  0.97291977     0.39900
H2020       H  0.89758191  0.48088662  0.98744765     0.34800
C2021       C  0.98034248  0.45078937  0.90623266    -0.27000
C2022       C  0.98178542  0.43372564  0.87818547    -0.15000
C2023       C  0.95127199  0.43490289  0.85135767     0.35600
C2024       C  0.92199404  0.45635260  0.85234718    -0.26400
C2025       C  0.92262403  0.47732089  0.87938713    -0.15700
C2026       C  0.95132401  0.47249763  0.90702853     0.36700
N2027       N  0.95166370  0.49089529  0.93582008    -0.89900
H2028       H  0.50128206  0.44136213  0.92608702     0.17800
H2029       H  0.89990456  0.45925592  0.83107022     0.17800
N2030       N  0.95009153  0.41729418  0.82208865    -0.88900
H2031       H  0.97339186  0.50934060  0.94303751     0.35200
H2032       H  0.95472344  0.46941975  0.95295251     0.40300
H2033       H  0.95520803  0.38774152  0.82592636     0.39900
H2034       H  0.96940582  0.42989267  0.81417749     0.34800
C2035       C  0.70306642  0.56928223  0.85441152    -0.27000
C2036       C  0.73288471  0.56791595  0.88133446    -0.15000
C2037       C  0.73018838  0.54959357  0.90861880     0.35600
C2038       C  0.69980588  0.52893182  0.90730989    -0.26400
C2039       C  0.67176184  0.52581438  0.87915092    -0.15700
C2040       C  0.67240865  0.54842231  0.85306735     0.36700
N2041       N  0.64323381  0.54773565  0.82461516    -0.89900
H2042       H  0.70474443  0.58350088  0.83336462     0.17800
H2043       H  0.69917229  0.51293676  0.92797015     0.17800
N2044       N  0.75913265  0.54980942  0.93720563    -0.88900
H2045       H  0.64863916  0.56418294  0.80708005     0.35200
H2046       H  0.62254661  0.56150345  0.82952915     0.40300
H2047       H  0.76639348  0.52107717  0.94331800     0.39900
H2048       H  0.75070447  0.56176206  0.95498134     0.34800
loop_ 
_geom_bond_atom_site_label_1 
_geom_bond_atom_site_label_2 
_geom_bond_distance 
_geom_bond_site_symmetry_2 
_ccdc_geom_bond_type 
O1          Cr19   1.989       .  S
O1            C9   1.266       .  A
O2          Cr19   1.965       .  S
O2            C3   1.258       .  A
C3            O4   1.269       .  A
C3          C500   1.490       .  S
O4          Cr20   2.024       .  S
O5          Cr20   1.999       .  S
O5            C6   1.266       .  A
C6            O7   1.258       .  A
C6          C430   1.478       .  S
O7          Cr21   1.985       .  S
O8          Cr21   1.990       .  S
O8            C9   1.269       .  A
C9          C472   1.480       .  S
O10         Cr19   2.001       .  S
O10          C18   1.259       .  A
O11         Cr19   1.988       .  S
O11          C12   1.261       .  A
C12          O13   1.255       .  A
C12         C447   1.471       .  S
O13         Cr20   1.956       .  S
O14         Cr20   1.994       .  S
O14          C15   1.266       .  A
C15          O16   1.274       .  A
C15         C458   1.485       .  S
O16         Cr21   1.996       .  S
O17         Cr21   2.005       .  S
O17          C18   1.260       .  A
C18         C489   1.487       .  S
Cr19         O22   1.769       .  S
Cr20         O22   1.776       .  S
Cr21         O22   1.765       .  S
O23         Cr41   1.937       .  S
O23          C31   1.258       .  A
O24         Cr41   1.991       .  S
O24          C25   1.265       .  A
C25          O26   1.269       .  A
C25        C1440   1.473       .  S
O26         Cr42   1.998       .  S
O27         Cr42   2.015       .  S
O27          C28   1.263       .  A
C28          O29   1.256       .  A
C28         C374   1.505       .  S
O29         Cr43   1.977       .  S
O30         Cr43   2.038       .  S
O30          C31   1.278       .  A
C31         C475   1.468       .  S
O32         Cr41   2.005       .  S
O32          C40   1.255       .  A
O33         Cr41   1.980       .  S
O33          C34   1.262       .  A
C34          O35   1.263       .  A
C34         C388   1.473       .  S
O35         Cr42   1.985       .  S
O36         Cr42   1.945       .  S
O36          C37   1.256       .  A
C37          O38   1.274       .  A
C37         C461   1.475       .  S
O38         Cr43   2.030       .  S
O39         Cr43   1.987       .  S
O39          C40   1.253       .  A
C40         C405   1.482       .  S
Cr41         O44   1.779       .  S
Cr42         O44   1.782       .  S
Cr43         O44   1.775       .  S
O45         Cr63   1.991       .  S
O45          C53   1.269       .  A
O46         Cr63   1.996       .  S
O46          C47   1.261       .  A
C47          O48   1.270       .  A
C47         C332   1.501       .  S
O48         Cr64   2.007       .  S
O49         Cr64   2.022       .  S
O49          C50   1.267       .  A
C50          O51   1.258       .  A
C50         C402   1.493       .  S
O51         Cr65   1.973       .  S
O52         Cr65   1.998       .  S
O52          C53   1.269       .  A
C53         C346   1.481       .  S
O54         Cr63   2.003       .  S
O54          C62   1.260       .  A
O55         Cr63   2.007       .  S
O55          C56   1.271       .  A
C56          O57   1.264       .  A
C56         C363   1.473       .  S
O57         Cr64   1.994       .  S
O58         Cr64   1.957       .  S
O58          C59   1.257       .  A
C59          O60   1.264       .  A
C59         C444   1.475       .  S
O60         Cr65   1.994       .  S
O61         Cr65   2.000       .  S
O61          C62   1.258       .  A
C62         C419   1.489       .  S
Cr63         O66   1.763       .  S
Cr64         O66   1.776       .  S
Cr65         O66   1.772       .  S
O67         Cr85   1.988       .  S
O67          C75   1.274       .  A
O68         Cr85   1.970       .  S
O68          C69   1.252       .  A
C69          O70   1.268       .  A
C69         C318   1.484       .  S
O70         Cr86   2.010       .  S
O71         Cr86   2.016       .  S
O71          C72   1.268       .  A
C72          O73   1.259       .  A
C72        C1510   1.488   1_455  S
O73         Cr87   1.967       .  S
O74         Cr87   2.011       .  S
O74          C75   1.277       .  A
C75         C349   1.480       .  S
O76         Cr85   1.987       .  S
O76          C84   1.249       .  A
O77         Cr85   2.010       .  S
O77          C78   1.277       .  A
C78          O79   1.269       .  A
C78         C360   1.482       .  S
O79         Cr86   1.996       .  S
O80         Cr86   1.956       .  S
O80          C81   1.256       .  A
C81          O82   1.262       .  A
C81         C391   1.468       .  S
O82         Cr87   1.980       .  S
O83         Cr87   2.011       .  S
O83          C84   1.254       .  A
C84         C503   1.489       .  S
Cr85         O88   1.767       .  S
Cr86         O88   1.783       .  S
Cr87         O88   1.768       .  S
O89        Cr107   2.024       .  S
O89          C97   1.278       .  A
O90        Cr107   1.981       .  S
O90          C91   1.256       .  A
C91          O92   1.262       .  A
C91         C377   1.502       .  S
O92        Cr108   1.999       .  S
O93        Cr108   1.998       .  S
O93          C94   1.264       .  A
C94          O95   1.261       .  A
C94         C304   1.471       .  S
O95        Cr109   1.990       .  S
O96        Cr109   1.952       .  S
O96          C97   1.263       .  A
C97         C276   1.487       .  S
O98        Cr107   1.989       .  S
O98         C106   1.252       .  A
O99        Cr107   2.009       .  S
O99         C100   1.271       .  A
C100        O101   1.256       .  A
C100        C262   1.469       .  S
O101       Cr108   1.943       .  S
O102       Cr108   1.993       .  S
O102        C103   1.267       .  A
C103        O104   1.267       .  A
C103        C248   1.470       .  S
O104       Cr109   1.981       .  S
O105       Cr109   2.014       .  S
O105        C106   1.256       .  A
C106        C290   1.487   1_565  S
Cr107       O110   1.775       .  S
Cr108       O110   1.781       .  S
Cr109       O110   1.779       .  S
O111       Cr129   2.035       .  S
O111        C119   1.277       .  A
O112       Cr129   1.974       .  S
O112        C113   1.257       .  A
C113        O114   1.266       .  A
C113        C433   1.496       .  S
O114       Cr130   2.013       .  S
O115       Cr130   1.999       .  S
O115        C116   1.267       .  A
C116        O117   1.264       .  A
C116       C1258   1.473       .  S
O117       Cr131   1.991       .  S
O118       Cr131   1.940       .  S
O118        C119   1.258       .  A
C119        C279   1.471       .  S
O120       Cr129   1.989       .  S
O120        C128   1.254       .  A
O121       Cr129   2.017       .  S
O121        C122   1.271       .  A
C122        O123   1.256       .  A
C122        C265   1.473       .  S
O123       Cr130   1.946       .  S
O124       Cr130   1.991       .  S
O124        C125   1.265       .  A
C125        O126   1.266       .  A
C125        C206   1.476       .  S
O126       Cr131   1.981       .  S
O127       Cr131   2.021       .  S
O127        C128   1.260       .  A
C128        C220   1.490   1_565  S
Cr129       O132   1.771       .  S
Cr130       O132   1.777       .  S
Cr131       O132   1.770       .  S
O133       Cr151   1.998       .  S
O133        C141   1.271       .  A
O134       Cr151   1.964       .  S
O134        C135   1.257       .  A
C135        O136   1.268       .  A
C135       C1317   1.498   1_455  S
O136       Cr152   2.024       .  S
O137       Cr152   2.006       .  S
O137        C138   1.268       .  A
C138        O139   1.257       .  A
C138        C335   1.498       .  S
O139       Cr153   1.992       .  S
O140       Cr153   1.986       .  S
O140        C141   1.269       .  A
C141        C178   1.479       .  S
O142       Cr151   2.001   1_565  S
O142        C150   1.258   1_565  A
O143       Cr151   1.996       .  S
O143        C144   1.262       .  A
C144        O145   1.254       .  A
C144        C209   1.469       .  S
O145       Cr152   1.944       .  S
O146       Cr152   2.002       .  S
O146        C147   1.270       .  A
C147        O148   1.271       .  A
C147        C192   1.474       .  S
O148       Cr153   1.989       .  S
O149       Cr153   2.000       .  S
O149        C150   1.258       .  A
C150        C307   1.482   1_545  S
Cr151       O154   1.768       .  S
Cr152       O154   1.773       .  S
Cr153       O154   1.768       .  S
O155       Cr173   1.998       .  S
O155        C163   1.269       .  A
O156       Cr173   1.976       .  S
O156        C157   1.257       .  A
C157        O158   1.271       .  A
C157        C223   1.492       .  S
O158       Cr174   2.031       .  S
O159       Cr174   2.007       .  S
O159        C160   1.269       .  A
C160        O161   1.257       .  A
C160        C321   1.485       .  S
O161       Cr175   1.977       .  S
O162       Cr175   1.986       .  S
O162        C163   1.268       .  A
C163        C181   1.479       .  S
O164       Cr173   2.006       .  S
O164        C172   1.260       .  A
O165       Cr173   1.997       .  S
O165        C166   1.263       .  A
C166        O167   1.255       .  A
C166        C251   1.474       .  S
O167       Cr174   1.947       .  S
O168       Cr174   2.003       .  S
O168        C169   1.270       .  A
C169        O170   1.272       .  A
C169        C195   1.484       .  S
O170       Cr175   1.998       .  S
O171       Cr175   1.996       .  S
O171        C172   1.258       .  A
C172        C237   1.485   1_545  S
Cr173       O176   1.770       .  S
Cr174       O176   1.775       .  S
Cr175       O176   1.767       .  S
C177        C178   1.403       .  A
C177        C182   1.395       .  A
C177        H184   1.084       .  S
C178        C179   1.411       .  A
C179        C180   1.407       .  A
C179        N186   1.432       .  S
C180        C181   1.406       .  A
C180        H185   1.084       .  S
C181        C182   1.411       .  A
C182        N183   1.434   1_545  S
N183        H187   1.046       .  S
N183        H188   1.046       .  S
N186        H189   1.046       .  S
N186        H190   1.046       .  S
C191        C192   1.409       .  A
C191        C196   1.405   1_554  A
C191        H198   1.083       .  S
C192        C193   1.402       .  A
C193        C706   1.401   1_554  A
C193        N200   1.432       .  S
C194        C195   1.409       .  A
C194        C705   1.404       .  A
C194        H199   1.083       .  S
C195        C708   1.407       .  A
C196        C707   1.406       .  A
C196        N197   1.432       .  S
N197        H201   1.046       .  S
N197        H714   1.045       .  S
N200        H203   1.046       .  S
N200        H716   1.045       .  S
H202        N709   1.045       .  S
H204        N712   1.045       .  S
C205        C206   1.410       .  A
C205       C1746   1.391       .  A
C205        H212   1.084       .  S
C206        C207   1.410   1_565  A
C207       C1744   1.398       .  A
C207        N214   1.432       .  S
C208        C209   1.408   1_655  A
C208       C1743   1.395   1_554  A
C208        H213   1.084       .  S
C209        C210   1.411   1_545  A
C210       C1741   1.391   1_454  A
C210        N211   1.433       .  S
N211        H216   1.046       .  S
N211       H1239   1.045       .  S
N214        H217   1.045       .  S
N214       H1242   1.046       .  S
H215       N1235   1.045       .  S
H218       N1238   1.046       .  S
C219        C220   1.407       .  A
C219        C224   1.414       .  A
C219        H226   1.083       .  S
C220        C221   1.408       .  A
C221        C222   1.408       .  A
C221        N228   1.432       .  S
C222        C223   1.408       .  A
C222        H227   1.084       .  S
C223        C224   1.412       .  A
C224        N225   1.432       .  S
N225        H229   1.046       .  S
N225        H230   1.046       .  S
N228        H231   1.046   1_545  S
N228        H232   1.045       .  S
C233        C234   1.409       .  A
C233        C238   1.415       .  A
C233        H240   1.084       .  S
C234       C1140   1.477   1_455  S
C234        C235   1.404       .  A
C235        C236   1.402       .  A
C235       N1266   1.432   1_455  S
C236        C237   1.406       .  A
C236        H241   1.084       .  S
C237        C238   1.412       .  A
C238        N239   1.438       .  S
N239        H243   1.046       .  S
N239        H244   1.046       .  S
N242       C1259   1.433       .  S
N242        H245   1.045       .  S
N242        H246   1.046       .  S
C247        C248   1.407       .  A
C247        C764   1.400   1_554  A
C247        H254   1.084       .  S
C248        C249   1.403   1_565  A
C249        C762   1.397   1_554  A
C249        N256   1.432       .  S
C250        C251   1.409       .  A
C250        C761   1.397       .  A
C250        H255   1.083       .  S
C251        C252   1.410   1_545  A
C252        C759   1.396       .  A
C252        N253   1.433       .  S
N253        H258   1.046       .  S
N253        H769   1.045       .  S
N256        H259   1.045       .  S
N256        H772   1.045       .  S
H257        N765   1.046       .  S
H260        N768   1.046       .  S
C261        C262   1.408       .  A
C261        C778   1.405   1_554  A
C261        H268   1.084       .  S
C262        C263   1.403       .  A
C263        C264   1.394       .  A
C263        N270   1.433       .  S
C264        C777   1.409   1_554  A
C264        H269   1.084       .  S
C265        C266   1.410       .  A
C265        C776   1.408       .  A
C266        C773   1.404       .  A
C266        N267   1.438       .  S
N267        H271   1.045       .  S
N267        H272   1.046       .  S
N270        H273   1.046       .  S
N270        H274   1.046       .  S
C275        C276   1.414       .  A
C275        C280   1.407       .  A
C275        H282   1.083       .  S
C276        C277   1.409       .  A
C277        C278   1.398       .  A
C277        N284   1.432       .  S
C278        C279   1.404       .  A
C278        H283   1.084       .  S
C279        C280   1.405       .  A
C280        N281   1.438       .  S
N281        H285   1.046       .  S
N281        H286   1.045       .  S
N284        H287   1.046       .  S
N284        H288   1.046       .  S
C289        C290   1.403       .  A
C289        C294   1.409       .  A
C289        H296   1.084       .  S
C290        C291   1.408       .  A
C291        C292   1.410       .  A
C291        N298   1.438   1_545  S
C292        C293   1.411       .  A
C292        H297   1.084       .  S
C293       C1159   1.502       .  S
C293        C294   1.423       .  A
C294       N1319   1.432       .  S
N295       C1318   1.432       .  S
N295        H299   1.044       .  S
N295        H300   1.046       .  S
N298        H301   1.046   1_565  S
N298        H302   1.045       .  S
C303        C304   1.400       .  A
C303        C308   1.406       .  A
C303        H310   1.084       .  S
C304        C305   1.410       .  A
C305        C306   1.408       .  A
C305        N312   1.432       .  S
C306        C307   1.402       .  A
C306        H311   1.084       .  S
C307        C308   1.415       .  A
C308        N309   1.438       .  S
N309        H313   1.046       .  S
N309        H314   1.046       .  S
N312        H315   1.046       .  S
N312        H316   1.045       .  S
C317        C318   1.399       .  A
C317        C322   1.406       .  A
C317        H324   1.084       .  S
C318        C319   1.418       .  A
C319        C320   1.407       .  A
C319        N326   1.433       .  S
C320        C321   1.400       .  A
C320        H325   1.084       .  S
C321        C322   1.417       .  A
C322        N323   1.433       .  S
N323        H327   1.046       .  S
N323        H328   1.046       .  S
N326        H329   1.046       .  S
N326        H330   1.045       .  S
C331        C332   1.404       .  A
C331        C336   1.406       .  A
C331        H338   1.084       .  S
C332        C333   1.427       .  A
C333        C334   1.403       .  A
C333        N340   1.433       .  S
C334        C335   1.401       .  A
C334        H339   1.084       .  S
C335        C336   1.426       .  A
C336        N337   1.433       .  S
N337        H341   1.044       .  S
N337        H342   1.046       .  S
N340        H343   1.046       .  S
N340        H344   1.044       .  S
C345        C346   1.403       .  A
C345        C862   1.398   1_554  A
C345        H352   1.084       .  S
C346        C347   1.416       .  A
C347        C860   1.404   1_554  A
C347        N354   1.432       .  S
C348        C349   1.406       .  A
C348        C859   1.409       .  A
C348        H353   1.084       .  S
C349        C350   1.409       .  A
C350        C857   1.396       .  A
C350        N351   1.433       .  S
N351        H355   1.046       .  S
N351        H356   1.046       .  S
N354        H357   1.046       .  S
N354        H358   1.045       .  S
C359        C360   1.407       .  A
C359        C364   1.397       .  A
C359        H366   1.084       .  S
C360        C361   1.409       .  A
C361        C362   1.408       .  A
C361        N368   1.430       .  S
C362        C363   1.404       .  A
C362        H367   1.084       .  S
C363        C364   1.412       .  A
C364        N365   1.434       .  S
N365        H369   1.046       .  S
N365        H370   1.044       .  S
N368        H371   1.046       .  S
N368        H372   1.044       .  S
C373        C374   1.410       .  A
C373        C378   1.415       .  A
C373        H380   1.083       .  S
C374        C375   1.418       .  A
C375        C376   1.407       .  A
C375        N382   1.436       .  S
C376        C377   1.406       .  A
C376        H381   1.083       .  S
C377        C378   1.418       .  A
C378        N379   1.438       .  S
N379        H383   1.045       .  S
N379        H384   1.046       .  S
N382        H385   1.043       .  S
N382        H386   1.047       .  S
C387        C392   1.395       .  A
C387       C1412   1.407   1_455  A
C387        H394   1.083       .  S
C388        C389   1.410       .  A
C388       C1411   1.408       .  A
C389        C390   1.400       .  A
C389        N396   1.432       .  S
C390       C1415   1.403       .  A
C390        H395   1.084       .  S
C391        C392   1.407       .  A
C391       C1414   1.406   1_455  A
C392        N393   1.439       .  S
N393        H397   1.045       .  S
N393        H398   1.045       .  S
N396        H399   1.046       .  S
N396        H400   1.045       .  S
C401        C402   1.408       .  A
C401        C406   1.411       .  A
C401        H408   1.084       .  S
C402        C403   1.421       .  A
C403        C404   1.403       .  A
C403        N410   1.432       .  S
C404        C405   1.400       .  A
C404        H409   1.084       .  S
C405        C406   1.410       .  A
C406        N407   1.437       .  S
N407        H411   1.046       .  S
N407        H412   1.046       .  S
N410        H413   1.045       .  S
N410        H414   1.042       .  S
C415        C416   1.401       .  A
C415        C420   1.402       .  A
C415       H1446   1.084   1_455  S
C416       C1049   1.476   1_455  S
C416        C417   1.413       .  A
C417        C418   1.415       .  A
C417        N424   1.436       .  S
C418        C419   1.406       .  A
C418        H423   1.083       .  S
C419        C420   1.412       .  A
C420        N421   1.433       .  S
N421        H425   1.045       .  S
N421        H426   1.046       .  S
H422       C1439   1.084       .  S
N424        H427   1.045       .  S
N424        H428   1.046       .  S
C429        C430   1.403       .  A
C429        C434   1.410       .  A
C429        H436   1.084       .  S
C430        C431   1.407       .  A
C431        C432   1.406       .  A
C431        N438   1.433       .  S
C432        C433   1.409       .  A
C432        H437   1.083       .  S
C433        C434   1.416       .  A
C434        N435   1.432       .  S
N435        H439   1.045       .  S
N435        H440   1.046       .  S
N438        H441   1.046       .  S
N438        H442   1.046       .  S
C443        C444   1.406       .  A
C443        C448   1.394       .  A
C443        H450   1.084       .  S
C444        C445   1.415       .  A
C445        C446   1.400       .  A
C445        N452   1.439       .  S
C446        C447   1.405       .  A
C446        H451   1.084       .  S
C447        C448   1.408       .  A
C448        N449   1.433       .  S
N449        H453   1.045       .  S
N449        H454   1.045       .  S
N452        H455   1.045       .  S
N452        H456   1.046       .  S
C457        C458   1.399       .  A
C457        C462   1.398       .  A
C457        H464   1.084       .  S
C458        C459   1.421       .  A
C459        C460   1.406       .  A
C459        N466   1.433       .  S
C460        C461   1.398       .  A
C460        H465   1.084       .  S
C461        C462   1.413       .  A
C462        N463   1.432       .  S
N463        H467   1.046       .  S
N463        H468   1.045       .  S
N466        H469   1.046       .  S
N466        H470   1.046       .  S
C471        C472   1.407       .  A
C471        C988   1.401       .  A
C471        H478   1.084       .  S
C472        C473   1.416       .  A
C473        C986   1.395       .  A
C473        N480   1.433       .  S
C474        C475   1.400       .  A
C474        C985   1.398   1_554  A
C474        H479   1.085       .  S
C475        C476   1.410       .  A
C476        C983   1.401   1_554  A
C476        N477   1.430       .  S
N477        H481   1.046       .  S
N477        H482   1.044       .  S
N480        H483   1.046       .  S
N480        H484   1.045       .  S
C485        C486   1.404       .  A
C485        C490   1.403       .  A
C485       H1516   1.084       .  S
C486       C1096   1.490       .  S
C486        C487   1.422       .  A
C487        C488   1.407       .  A
C487        N494   1.432       .  S
C488        C489   1.402       .  A
C488        H493   1.084       .  S
C489        C490   1.412       .  A
C490        N491   1.433       .  S
N491        H495   1.046       .  S
N491        H496   1.046       .  S
H492       C1509   1.084       .  S
N494        H497   1.047       .  S
N494        H498   1.042       .  S
C499        C500   1.408       .  A
C499        C504   1.411       .  A
C499        H506   1.083       .  S
C500        C501   1.412       .  A
C501        C502   1.402       .  A
C501        N508   1.434       .  S
C502        C503   1.407       .  A
C502        H507   1.084       .  S
C503        C504   1.409       .  A
C504        N505   1.430       .  S
N505        H509   1.045       .  S
N505        H510   1.045       .  S
N508        H511   1.046       .  S
N508        H512   1.045       .  S
O513       Cr531   1.997       .  S
O513        C521   1.267       .  A
O514       Cr531   1.970       .  S
O514        C515   1.260       .  A
C515        O516   1.269       .  A
C515       C1012   1.489       .  S
O516       Cr532   2.022       .  S
O517       Cr532   1.995       .  S
O517        C518   1.265       .  A
C518        O519   1.261       .  A
C518        C942   1.480       .  S
O519       Cr533   1.991       .  S
O520       Cr533   1.985       .  S
O520        C521   1.268       .  A
C521        C984   1.482       .  S
O522       Cr531   2.001       .  S
O522        C530   1.259       .  A
O523       Cr531   1.987       .  S
O523        C524   1.261       .  A
C524        O525   1.256       .  A
C524        C959   1.470       .  S
O525       Cr532   1.961       .  S
O526       Cr532   1.992       .  S
O526        C527   1.264       .  A
C527        O528   1.270       .  A
C527        C970   1.482       .  S
O528       Cr533   1.989       .  S
O529       Cr533   2.009       .  S
O529        C530   1.262       .  A
C530       C1001   1.488       .  S
Cr531       O534   1.766       .  S
Cr532       O534   1.777       .  S
Cr533       O534   1.766       .  S
O535       Cr553   1.934       .  S
O535        C543   1.257       .  A
O536       Cr553   1.997       .  S
O536        C537   1.266       .  A
C537        O538   1.270       .  A
C537       C1952   1.480       .  S
O538       Cr554   2.002       .  S
O539       Cr554   2.023       .  S
O539        C540   1.267       .  A
C540        O541   1.255       .  A
C540        C886   1.503       .  S
O541       Cr555   1.970       .  S
O542       Cr555   2.029       .  S
O542        C543   1.275       .  A
C543        C987   1.459       .  S
O544       Cr553   2.017       .  S
O544        C552   1.258       .  A
O545       Cr553   1.980       .  S
O545        C546   1.264       .  A
C546        O547   1.264       .  A
C546        C900   1.474       .  S
O547       Cr554   1.989       .  S
O548       Cr554   1.948       .  S
O548        C549   1.255       .  A
C549        O550   1.271       .  A
C549        C973   1.473       .  S
O550       Cr555   2.019       .  S
O551       Cr555   1.981       .  S
O551        C552   1.252       .  A
C552        C917   1.482       .  S
Cr553       O556   1.773       .  S
Cr554       O556   1.778       .  S
Cr555       O556   1.774       .  S
O557       Cr575   1.989       .  S
O557        C565   1.269       .  A
O558       Cr575   1.986       .  S
O558        C559   1.258       .  A
C559        O560   1.269       .  A
C559        C844   1.487       .  S
O560       Cr576   2.005       .  S
O561       Cr576   2.023       .  S
O561        C562   1.268       .  A
C562        O563   1.258       .  A
C562        C914   1.498       .  S
O563       Cr577   1.970       .  S
O564       Cr577   1.999       .  S
O564        C565   1.271       .  A
C565        C858   1.486       .  S
O566       Cr575   1.997       .  S
O566        C574   1.258       .  A
O567       Cr575   2.003       .  S
O567        C568   1.271       .  A
C568        O569   1.266       .  A
C568        C875   1.473       .  S
O569       Cr576   1.997       .  S
O570       Cr576   1.957       .  S
O570        C571   1.257       .  A
C571        O572   1.263       .  A
C571        C956   1.469       .  S
O572       Cr577   1.990       .  S
O573       Cr577   1.993       .  S
O573        C574   1.255       .  A
C574        C931   1.481       .  S
Cr575       O578   1.767       .  S
Cr576       O578   1.773       .  S
Cr577       O578   1.770       .  S
O579       Cr597   1.987       .  S
O579        C587   1.272       .  A
O580       Cr597   1.990       .  S
O580        C581   1.259       .  A
C581        O582   1.268       .  A
C581        C830   1.495       .  S
O582       Cr598   2.006       .  S
O583       Cr598   2.025       .  S
O583        C584   1.269       .  A
C584        O585   1.259       .  A
C584       C2022   1.494   1_455  S
O585       Cr599   1.968       .  S
O586       Cr599   2.007       .  S
O586        C587   1.273       .  A
C587        C861   1.487       .  S
O588       Cr597   1.997       .  S
O588        C596   1.256       .  A
O589       Cr597   2.001       .  S
O589        C590   1.272       .  A
C590        O591   1.267       .  A
C590        C872   1.478       .  S
O591       Cr598   1.998       .  S
O592       Cr598   1.950       .  S
O592        C593   1.254       .  A
C593        O594   1.263       .  A
C593        C903   1.472       .  S
O594       Cr599   1.991       .  S
O595       Cr599   2.009       .  S
O595        C596   1.257       .  A
C596       C1015   1.490       .  S
Cr597       O600   1.766       .  S
Cr598       O600   1.781       .  S
Cr599       O600   1.767       .  S
O601       Cr619   2.023       .  S
O601        C609   1.276       .  A
O602       Cr619   1.982       .  S
O602        C603   1.259       .  A
C603        O604   1.264       .  A
C603        C889   1.503       .  S
O604       Cr620   2.006       .  S
O605       Cr620   2.005       .  S
O605        C606   1.266       .  A
C606        O607   1.259       .  A
C606        C816   1.471       .  S
O607       Cr621   1.983       .  S
O608       Cr621   1.949       .  S
O608        C609   1.260       .  A
C609        C788   1.481       .  S
O610       Cr619   1.987       .  S
O610        C618   1.253       .  A
O611       Cr619   2.004       .  S
O611        C612   1.268       .  A
C612        O613   1.257       .  A
C612        C774   1.464       .  S
O613       Cr620   1.950       .  S
O614       Cr620   1.993       .  S
O614        C615   1.266       .  A
C615        O616   1.263       .  A
C615        C760   1.456       .  S
O616       Cr621   1.968       .  S
O617       Cr621   2.004       .  S
O617        C618   1.255       .  A
C618        C802   1.479   1_565  S
Cr619       O622   1.773       .  S
Cr620       O622   1.781       .  S
Cr621       O622   1.777       .  S
O623       Cr641   2.037       .  S
O623        C631   1.279       .  A
O624       Cr641   1.978       .  S
O624        C625   1.257       .  A
C625        O626   1.264       .  A
C625        C945   1.499       .  S
O626       Cr642   2.004       .  S
O627       Cr642   1.998       .  S
O627        C628   1.266       .  A
C628        O629   1.263       .  A
C628       C1770   1.472       .  S
O629       Cr643   1.992       .  S
O630       Cr643   1.937       .  S
O630        C631   1.260       .  A
C631        C791   1.475       .  S
O632       Cr641   1.983       .  S
O632        C640   1.252       .  A
O633       Cr641   2.018       .  S
O633        C634   1.271       .  A
C634        O635   1.255       .  A
C634        C777   1.476       .  S
O635       Cr642   1.938       .  S
O636       Cr642   1.988       .  S
O636        C637   1.265       .  A
C637        O638   1.267       .  A
C637        C718   1.470       .  S
O638       Cr643   1.984       .  S
O639       Cr643   2.013       .  S
O639        C640   1.256       .  A
C640        C732   1.482   1_565  S
Cr641       O644   1.775       .  S
Cr642       O644   1.776       .  S
Cr643       O644   1.775       .  S
O645       Cr663   2.000       .  S
O645        C653   1.270       .  A
O646       Cr663   1.966       .  S
O646        C647   1.257       .  A
C647        O648   1.268       .  A
C647       C1829   1.494   1_455  S
O648       Cr664   2.024       .  S
O649       Cr664   2.003       .  S
O649        C650   1.266       .  A
C650        O651   1.256       .  A
C650        C847   1.486       .  S
O651       Cr665   1.984       .  S
O652       Cr665   1.992       .  S
O652        C653   1.270       .  A
C653        C690   1.489       .  S
O654       Cr663   1.999       .  S
O654        C662   1.258       .  A
O655       Cr663   1.993       .  S
O655        C656   1.262       .  A
C656        O657   1.253       .  A
C656        C721   1.467       .  S
O657       Cr664   1.944       .  S
O658       Cr664   2.003       .  S
O658        C659   1.270       .  A
C659        O660   1.272       .  A
C659        C704   1.480       .  S
O660       Cr665   1.996       .  S
O661       Cr665   2.001       .  S
O661        C662   1.259       .  A
C662        C819   1.485   1_545  S
Cr663       O666   1.768       .  S
Cr664       O666   1.776       .  S
Cr665       O666   1.767       .  S
O667       Cr685   2.002       .  S
O667        C675   1.270       .  A
O668       Cr685   1.972       .  S
O668        C669   1.256       .  A
C669        O670   1.269       .  A
C669        C735   1.483       .  S
O670       Cr686   2.020       .  S
O671       Cr686   2.007       .  S
O671        C672   1.269       .  A
C672        O673   1.258       .  A
C672        C833   1.494       .  S
O673       Cr687   1.989       .  S
O674       Cr687   1.988       .  S
O674        C675   1.269       .  A
C675        C693   1.474       .  S
O676       Cr685   2.003   1_565  S
O676        C684   1.258       .  A
O677       Cr685   2.003       .  S
O677        C678   1.265       .  A
C678        O679   1.256       .  A
C678        C763   1.475       .  S
O679       Cr686   1.953       .  S
O680       Cr686   1.994       .  S
O680        C681   1.268       .  A
C681        O682   1.272       .  A
C681        C707   1.479       .  S
O682       Cr687   2.000       .  S
O683       Cr687   1.990       .  S
O683        C684   1.258   1_545  A
C684        C749   1.482       .  S
Cr685       O688   1.773       .  S
Cr686       O688   1.773       .  S
Cr687       O688   1.767       .  S
C689        C690   1.408       .  A
C689        C694   1.396       .  A
C689        H696   1.083       .  S
C690        C691   1.417       .  A
C691        C692   1.411       .  A
C691        N698   1.437       .  S
C692        C693   1.404       .  A
C692        H697   1.084       .  S
C693        C694   1.406       .  A
C694        N695   1.434   1_545  S
N695        H699   1.046       .  S
N695        H700   1.046       .  S
N698        H701   1.045       .  S
N698        H702   1.046       .  S
C703        C704   1.409       .  A
C703        C708   1.407       .  A
C703        H710   1.083       .  S
C704        C705   1.403       .  A
C705        N712   1.432       .  S
C706        C707   1.410       .  A
C706        H711   1.084       .  S
C708        N709   1.432       .  S
N709        H713   1.046       .  S
N712        H715   1.046       .  S
C717        C718   1.406       .  A
C717       C1234   1.390   1_556  A
C717        H724   1.084       .  S
C718        C719   1.404   1_565  A
C719       C1232   1.399   1_556  A
C719        N726   1.432       .  S
C720       C1231   1.395       .  A
C720        C721   1.409   1_655  A
C720        H725   1.084       .  S
C721        C722   1.411   1_545  A
C722       C1229   1.388   1_455  A
C722        N723   1.433       .  S
N723       H1751   1.045       .  S
N723        H728   1.045       .  S
N726        H729   1.046       .  S
N726       H1754   1.045       .  S
H727       N1747   1.045       .  S
H730       N1750   1.046       .  S
C731        C732   1.406       .  A
C731        C736   1.412       .  A
C731        H738   1.084       .  S
C732        C733   1.407       .  A
C733        C734   1.404       .  A
C733        N740   1.433       .  S
C734        C735   1.406       .  A
C734        H739   1.084       .  S
C735        C736   1.411       .  A
C736        N737   1.432       .  S
N737        H741   1.046       .  S
N737        H742   1.046       .  S
N740        H743   1.046   1_545  S
N740        H744   1.045       .  S
C745        C746   1.407       .  A
C745        C750   1.414       .  A
C745        H752   1.084       .  S
C746       C1652   1.472   1_455  S
C746        C747   1.403       .  A
C747        C748   1.397       .  A
C747       N1778   1.431   1_455  S
C748        C749   1.405       .  A
C748        H753   1.085       .  S
C749        C750   1.412       .  A
C750        N751   1.437       .  S
N751        H755   1.046       .  S
N751        H756   1.045       .  S
N754       C1771   1.431       .  S
N754        H757   1.046       .  S
N754        H758   1.046       .  S
C759        C760   1.401       .  A
C759        H766   1.085       .  S
C760        C761   1.404   1_565  A
C761        N768   1.439       .  S
C762        C763   1.408       .  A
C762        H767   1.084       .  S
C763        C764   1.408   1_545  A
C764        N765   1.433       .  S
N765        H770   1.046       .  S
N768        H771   1.045       .  S
C773        C774   1.404       .  A
C773        H780   1.084       .  S
C774        C775   1.404       .  A
C775        C776   1.396       .  A
C775        N782   1.433       .  S
C776        H781   1.084       .  S
C777        C778   1.409       .  A
C778        N779   1.437       .  S
N779        H783   1.046       .  S
N779        H784   1.045       .  S
N782        H785   1.046       .  S
N782        H786   1.046       .  S
C787        C788   1.412       .  A
C787        C792   1.406       .  A
C787        H794   1.083       .  S
C788        C789   1.407       .  A
C789        C790   1.396       .  A
C789        N796   1.433       .  S
C790        C791   1.406       .  A
C790        H795   1.082       .  S
C791        C792   1.407       .  A
C792        N793   1.438       .  S
N793        H797   1.046       .  S
N793        H798   1.045       .  S
N796        H799   1.045       .  S
N796        H800   1.046       .  S
C801        C802   1.402       .  A
C801        C806   1.407       .  A
C801        H808   1.084       .  S
C802        C803   1.406       .  A
C803        C804   1.407       .  A
C803        N810   1.438   1_545  S
C804        C805   1.410       .  A
C804        H809   1.084       .  S
C805       C1671   1.495       .  S
C805        C806   1.422       .  A
C806       N1831   1.431       .  S
N807       C1830   1.432       .  S
N807        H811   1.043       .  S
N807        H812   1.045       .  S
N810        H813   1.045   1_565  S
N810        H814   1.046   1_565  S
C815        C816   1.401       .  A
C815        C820   1.405       .  A
C815        H822   1.084       .  S
C816        C817   1.409       .  A
C817        C818   1.409       .  A
C817        N824   1.432       .  S
C818        C819   1.404       .  A
C818        H823   1.084       .  S
C819        C820   1.415       .  A
C820        N821   1.439       .  S
N821        H825   1.046       .  S
N821        H826   1.046       .  S
N824        H827   1.046       .  S
N824        H828   1.045       .  S
C829        C830   1.403       .  A
C829        C834   1.411       .  A
C829        H836   1.084       .  S
C830        C831   1.418       .  A
C831        C832   1.407       .  A
C831        N838   1.433       .  S
C832        C833   1.401       .  A
C832        H837   1.084       .  S
C833        C834   1.420       .  A
C834        N835   1.433       .  S
N835        H839   1.046       .  S
N835        H840   1.046       .  S
N838        H841   1.046       .  S
N838        H842   1.046       .  S
C843        C844   1.401       .  A
C843        C848   1.402       .  A
C843        H850   1.084       .  S
C844        C845   1.422       .  A
C845        C846   1.403       .  A
C845        N852   1.433       .  S
C846        C847   1.401       .  A
C846        H851   1.084       .  S
C847        C848   1.421       .  A
C848        N849   1.433       .  S
N849        H853   1.044       .  S
N849        H854   1.044       .  S
N852        H855   1.045       .  S
N852        H856   1.044       .  S
C857        C858   1.406       .  A
C857        H864   1.084       .  S
C858        C859   1.413       .  A
C859        N866   1.432       .  S
C860        C861   1.407       .  A
C860        H865   1.084       .  S
C861        C862   1.415       .  A
C862        N863   1.433       .  S
N863        H867   1.046       .  S
N863        H868   1.046       .  S
N866        H869   1.045       .  S
N866        H870   1.046       .  S
C871        C872   1.404       .  A
C871        C876   1.397       .  A
C871        H878   1.084       .  S
C872        C873   1.410       .  A
C873        C874   1.407       .  A
C873        N880   1.431       .  S
C874        C875   1.403       .  A
C874        H879   1.084       .  S
C875        C876   1.414       .  A
C876        N877   1.433       .  S
N877        H881   1.046       .  S
N877        H882   1.044       .  S
N880        H883   1.046       .  S
N880        H884   1.046       .  S
C885        C886   1.407       .  A
C885        C890   1.410       .  A
C885        H892   1.083       .  S
C886        C887   1.418       .  A
C887        C888   1.408       .  A
C887        N894   1.433       .  S
C888        C889   1.407       .  A
C888        H893   1.084       .  S
C889        C890   1.417       .  A
C890        N891   1.432       .  S
N891        H895   1.046       .  S
N891        H896   1.046       .  S
N894        H897   1.046       .  S
N894        H898   1.046       .  S
C899       C1924   1.405   1_455  A
C899        C904   1.396       .  A
C899        H906   1.084       .  S
C900       C1923   1.408       .  A
C900        C901   1.411       .  A
C901        C902   1.402       .  A
C901        N908   1.438       .  S
C902       C1927   1.406       .  A
C902        H907   1.084       .  S
C903       C1926   1.408       .  A
C903        C904   1.409       .  A
C904        N905   1.438       .  S
N905        H909   1.046       .  S
N905        H910   1.044       .  S
N908        H911   1.046       .  S
N908        H912   1.045       .  S
C913        C914   1.410       .  A
C913        C918   1.411       .  A
C913        H920   1.084       .  S
C914        C915   1.423       .  A
C915        C916   1.405       .  A
C915        N922   1.432       .  S
C916        C917   1.400       .  A
C916        H921   1.084       .  S
C917        C918   1.409       .  A
C918        N919   1.438       .  S
N919        H923   1.046       .  S
N919        H924   1.045       .  S
N922        H925   1.045       .  S
N922        H926   1.045       .  S
C927        C928   1.400       .  A
C927        C932   1.400       .  A
C927       H1958   1.085   1_455  S
C928       C1561   1.468   1_455  S
C928        C929   1.412       .  A
C929        C930   1.411       .  A
C929        N936   1.437       .  S
C930        C931   1.403       .  A
C930        H935   1.084       .  S
C931        C932   1.411       .  A
C932        N933   1.433       .  S
N933        H937   1.045       .  S
N933        H938   1.046       .  S
H934       C1951   1.084       .  S
N936        H939   1.045       .  S
N936        H940   1.046       .  S
C941        C942   1.404       .  A
C941        C946   1.414       .  A
C941        H948   1.084       .  S
C942        C943   1.406       .  A
C943        C944   1.403       .  A
C943        N950   1.433       .  S
C944        C945   1.409       .  A
C944        H949   1.083       .  S
C945        C946   1.420       .  A
C946        N947   1.437       .  S
N947        H951   1.046       .  S
N947        H952   1.046       .  S
N950        H953   1.046       .  S
N950        H954   1.046       .  S
C955        C956   1.403       .  A
C955        C960   1.398       .  A
C955        H962   1.084       .  S
C956        C957   1.409       .  A
C957        C958   1.397       .  A
C957        N964   1.433       .  S
C958        C959   1.404       .  A
C958        H963   1.084       .  S
C959        C960   1.413       .  A
C960        N961   1.439       .  S
N961        H965   1.045       .  S
N961        H966   1.046       .  S
N964        H967   1.046       .  S
N964        H968   1.046       .  S
C969        C970   1.401       .  A
C969        C974   1.397       .  A
C969        H976   1.084       .  S
C970        C971   1.420       .  A
C971        C972   1.402       .  A
C971        N978   1.433       .  S
C972        C973   1.398       .  A
C972        H977   1.084       .  S
C973        C974   1.413       .  A
C974        N975   1.432       .  S
N975        H979   1.046       .  S
N975        H980   1.045       .  S
N978        H981   1.046       .  S
N978        H982   1.046       .  S
C983        C984   1.406       .  A
C983        H990   1.084       .  S
C984        C985   1.415       .  A
C985        N992   1.433       .  S
C986        C987   1.396       .  A
C986        H991   1.085       .  S
C987        C988   1.409       .  A
C988        N989   1.432       .  S
N989        H993   1.046       .  S
N989        H994   1.045       .  S
N992        H995   1.046       .  S
N992        H996   1.046       .  S
C997        C998   1.405       .  A
C997       C1002   1.404       .  A
C997       H2028   1.084       .  S
C998       C1608   1.488       .  S
C998        C999   1.421       .  A
C999       C1000   1.408       .  A
C999       N1006   1.432       .  S
C1000      C1001   1.404       .  A
C1000      H1005   1.084       .  S
C1001      C1002   1.410       .  A
C1002      N1003   1.433       .  S
N1003      H1007   1.046       .  S
N1003      H1008   1.046       .  S
H1004      C2021   1.084   1_455  S
N1006      H1009   1.044       .  S
N1006      H1010   1.045       .  S
C1011      C1012   1.409       .  A
C1011      C1016   1.414       .  A
C1011      H1018   1.083       .  S
C1012      C1013   1.409       .  A
C1013      C1014   1.402       .  A
C1013      N1020   1.433       .  S
C1014      C1015   1.406       .  A
C1014      H1019   1.084       .  S
C1015      C1016   1.412       .  A
C1016      N1017   1.435       .  S
N1017      H1021   1.045       .  S
N1017      H1022   1.045       .  S
N1020      H1023   1.046       .  S
N1020      H1024   1.045       .  S
O1025     Cr1043   1.994       .  S
O1025      C1033   1.265       .  A
O1026     Cr1043   1.962       .  S
O1026      C1027   1.257       .  A
C1027      O1028   1.271       .  A
C1027      C1524   1.493       .  S
O1028     Cr1044   2.034       .  S
O1029     Cr1044   1.999       .  S
O1029      C1030   1.267       .  A
C1030      O1031   1.259       .  A
C1030      C1454   1.482       .  S
O1031     Cr1045   1.985       .  S
O1032     Cr1045   1.997       .  S
O1032      C1033   1.270       .  A
C1033      C1496   1.489       .  S
O1034     Cr1043   2.003       .  S
O1034      C1042   1.260       .  A
O1035     Cr1043   1.989       .  S
O1035      C1036   1.261       .  A
C1036      O1037   1.255       .  A
C1036      C1471   1.470       .  S
O1037     Cr1044   1.955       .  S
O1038     Cr1044   2.003       .  S
O1038      C1039   1.268       .  A
C1039      O1040   1.272       .  A
C1039      C1482   1.481       .  S
O1040     Cr1045   1.995       .  S
O1041     Cr1045   2.003       .  S
O1041      C1042   1.261       .  A
C1042      C1513   1.486       .  S
Cr1043     O1046   1.767       .  S
Cr1044     O1046   1.777       .  S
Cr1045     O1046   1.763       .  S
O1047     Cr1065   1.937       .  S
O1047      C1055   1.257       .  A
O1048     Cr1065   1.995       .  S
O1048      C1049   1.267       .  A
C1049      O1050   1.270       .  A
O1050     Cr1066   2.000       .  S
O1051     Cr1066   2.012       .  S
O1051      C1052   1.263       .  A
C1052      O1053   1.253       .  A
C1052      C1398   1.496       .  S
O1053     Cr1067   1.966       .  S
O1054     Cr1067   2.031       .  S
O1054      C1055   1.275       .  A
C1055      C1499   1.465       .  S
O1056     Cr1065   2.012       .  S
O1056      C1064   1.258       .  A
O1057     Cr1065   1.980       .  S
O1057      C1058   1.262       .  A
C1058      O1059   1.261       .  A
C1058      C1412   1.471       .  S
O1059     Cr1066   1.984       .  S
O1060     Cr1066   1.952       .  S
O1060      C1061   1.257       .  A
C1061      O1062   1.273       .  A
C1061      C1485   1.471       .  S
O1062     Cr1067   2.030       .  S
O1063     Cr1067   1.984       .  S
O1063      C1064   1.254       .  A
C1064      C1429   1.483       .  S
Cr1065     O1068   1.772       .  S
Cr1066     O1068   1.780       .  S
Cr1067     O1068   1.773       .  S
O1069     Cr1087   1.991       .  S
O1069      C1077   1.269       .  A
O1070     Cr1087   1.992       .  S
O1070      C1071   1.261       .  A
C1071      O1072   1.270       .  A
C1071      C1356   1.493       .  S
O1072     Cr1088   2.004       .  S
O1073     Cr1088   2.029       .  S
O1073      C1074   1.269       .  A
C1074      O1075   1.258       .  A
C1074      C1426   1.499       .  S
O1075     Cr1089   1.972       .  S
O1076     Cr1089   2.002       .  S
O1076      C1077   1.270       .  A
C1077      C1370   1.492       .  S
O1078     Cr1087   2.000       .  S
O1078      C1086   1.259       .  A
O1079     Cr1087   2.004       .  S
O1079      C1080   1.270       .  A
C1080      O1081   1.265       .  A
C1080      C1387   1.474       .  S
O1081     Cr1088   1.999       .  S
O1082     Cr1088   1.955       .  S
O1082      C1083   1.256       .  A
C1083      O1084   1.263       .  A
C1083      C1468   1.469       .  S
O1084     Cr1089   1.991       .  S
O1085     Cr1089   1.998       .  S
O1085      C1086   1.257       .  A
C1086      C1443   1.486       .  S
Cr1087     O1090   1.763       .  S
Cr1088     O1090   1.777       .  S
Cr1089     O1090   1.770       .  S
O1091     Cr1109   1.989       .  S
O1091      C1099   1.272       .  A
O1092     Cr1109   1.979       .  S
O1092      C1093   1.255       .  A
C1093      O1094   1.264       .  A
C1093      C1342   1.484       .  S
O1094     Cr1110   2.002       .  S
O1095     Cr1110   2.014       .  S
O1095      C1096   1.267       .  A
C1096      O1097   1.260       .  A
O1097     Cr1111   1.971       .  S
O1098     Cr1111   2.001       .  S
O1098      C1099   1.272       .  A
C1099      C1373   1.485       .  S
O1100     Cr1109   1.993       .  S
O1100      C1108   1.254       .  A
O1101     Cr1109   1.999       .  S
O1101      C1102   1.274       .  A
C1102      O1103   1.271       .  A
C1102      C1384   1.482       .  S
O1103     Cr1110   2.005       .  S
O1104     Cr1110   1.954       .  S
O1104      C1105   1.255       .  A
C1105      O1106   1.262       .  A
C1105      C1415   1.459       .  S
O1106     Cr1111   1.981       .  S
O1107     Cr1111   2.011       .  S
O1107      C1108   1.257       .  A
C1108      C1527   1.492       .  S
Cr1109     O1112   1.768       .  S
Cr1110     O1112   1.781       .  S
Cr1111     O1112   1.766       .  S
O1113     Cr1131   2.031       .  S
O1113      C1121   1.278       .  A
O1114     Cr1131   1.968       .  S
O1114      C1115   1.254       .  A
C1115      O1116   1.264       .  A
C1115      C1401   1.493       .  S
O1116     Cr1132   1.998       .  S
O1117     Cr1132   1.997       .  S
O1117      C1118   1.263       .  A
C1118      O1119   1.261       .  A
C1118      C1328   1.468       .  S
O1119     Cr1133   1.987       .  S
O1120     Cr1133   1.943       .  S
O1120      C1121   1.260       .  A
C1121      C1300   1.486       .  S
O1122     Cr1131   1.983       .  S
O1122      C1130   1.252       .  A
O1123     Cr1131   2.020       .  S
O1123      C1124   1.271       .  A
C1124      O1125   1.256       .  A
C1124      C1286   1.483       .  S
O1125     Cr1132   1.945       .  S
O1126     Cr1132   1.992       .  S
O1126      C1127   1.267       .  A
C1127      O1128   1.265       .  A
C1127      C1272   1.461       .  S
O1128     Cr1133   1.971       .  S
O1129     Cr1133   2.011       .  S
O1129      C1130   1.256       .  A
C1130      C1314   1.478   1_565  S
Cr1131     O1134   1.769       .  S
Cr1132     O1134   1.774       .  S
Cr1133     O1134   1.771       .  S
O1135     Cr1153   2.039       .  S
O1135      C1143   1.281       .  A
O1136     Cr1153   1.971       .  S
O1136      C1137   1.257       .  A
C1137      O1138   1.266       .  A
C1137      C1457   1.497       .  S
O1138     Cr1154   2.007       .  S
O1139     Cr1154   2.002       .  S
O1139      C1140   1.266       .  A
C1140      O1141   1.261       .  A
O1141     Cr1155   1.994       .  S
O1142     Cr1155   1.938       .  S
O1142      C1143   1.260       .  A
C1143      C1303   1.474       .  S
O1144     Cr1153   1.994       .  S
O1144      C1152   1.253       .  A
O1145     Cr1153   2.017       .  S
O1145      C1146   1.270       .  A
C1146      O1147   1.255       .  A
C1146      C1289   1.483       .  S
O1147     Cr1154   1.947       .  S
O1148     Cr1154   1.985       .  S
O1148      C1149   1.267       .  A
C1149      O1150   1.267       .  A
C1149      C1230   1.461       .  S
O1150     Cr1155   1.974       .  S
O1151     Cr1155   2.018       .  S
O1151      C1152   1.256       .  A
C1152      C1244   1.487   1_565  S
Cr1153     O1156   1.769       .  S
Cr1154     O1156   1.775       .  S
Cr1155     O1156   1.775       .  S
O1157     Cr1175   2.001       .  S
O1157      C1165   1.271       .  A
O1158     Cr1175   1.966       .  S
O1158      C1159   1.257       .  A
C1159      O1160   1.271       .  A
O1160     Cr1176   2.032       .  S
O1161     Cr1176   2.004       .  S
O1161      C1162   1.267       .  A
C1162      O1163   1.257       .  A
C1162      C1359   1.490       .  S
O1163     Cr1177   1.989       .  S
O1164     Cr1177   1.987       .  S
O1164      C1165   1.269       .  A
C1165      C1202   1.485       .  S
O1166     Cr1175   1.998       .  S
O1166      C1174   1.257       .  A
O1167     Cr1175   1.994       .  S
O1167      C1168   1.263       .  A
C1168      O1169   1.254       .  A
C1168      C1233   1.471       .  S
O1169     Cr1176   1.949       .  S
O1170     Cr1176   2.006       .  S
O1170      C1171   1.272       .  A
C1171      O1172   1.271       .  A
C1171      C1216   1.474       .  S
O1172     Cr1177   1.992       .  S
O1173     Cr1177   1.998       .  S
O1173      C1174   1.259       .  A
C1174      C1331   1.483   1_545  S
Cr1175     O1178   1.769       .  S
Cr1176     O1178   1.775       .  S
Cr1177     O1178   1.772       .  S
O1179     Cr1197   1.993       .  S
O1179      C1187   1.268       .  A
O1180     Cr1197   1.972       .  S
O1180      C1181   1.257       .  A
C1181      O1182   1.269       .  A
C1181      C1247   1.493       .  S
O1182     Cr1198   2.028       .  S
O1183     Cr1198   2.001       .  S
O1183      C1184   1.268       .  A
C1184      O1185   1.258       .  A
C1184      C1345   1.487       .  S
O1185     Cr1199   1.981       .  S
O1186     Cr1199   1.996       .  S
O1186      C1187   1.270       .  A
C1187      C1205   1.479       .  S
O1188     Cr1197   2.000   1_565  S
O1188      C1196   1.260       .  A
O1189     Cr1197   1.994       .  S
O1189      C1190   1.263       .  A
C1190      O1191   1.254       .  A
C1190      C1275   1.472       .  S
O1191     Cr1198   1.942       .  S
O1192     Cr1198   1.997       .  S
O1192      C1193   1.268       .  A
C1193      O1194   1.274       .  A
C1193      C1219   1.484       .  S
O1194     Cr1199   2.009       .  S
O1195     Cr1199   2.000       .  S
O1195      C1196   1.259   1_545  A
C1196      C1261   1.484       .  S
Cr1197     O1200   1.770       .  S
Cr1198     O1200   1.774       .  S
Cr1199     O1200   1.767       .  S
C1201      C1202   1.405       .  A
C1201      C1206   1.395       .  A
C1201      H1208   1.084       .  S
C1202      C1203   1.417       .  A
C1203      C1204   1.411       .  A
C1203      N1210   1.437       .  S
C1204      C1205   1.404       .  A
C1204      H1209   1.084       .  S
C1205      C1206   1.409       .  A
C1206      N1207   1.434   1_545  S
N1207      H1211   1.046       .  S
N1207      H1212   1.046       .  S
N1210      H1213   1.046       .  S
N1210      H1214   1.045       .  S
C1215      C1216   1.405       .  A
C1215      C1220   1.403   1_554  A
C1215      H1222   1.082       .  S
C1216      C1217   1.402       .  A
C1217      C1730   1.405   1_554  A
C1217      N1224   1.432       .  S
C1218      C1729   1.405       .  A
C1218      C1219   1.410       .  A
C1218      H1223   1.083       .  S
C1219      C1732   1.404       .  A
C1220      C1731   1.408       .  A
C1220      N1221   1.432       .  S
N1221      H1225   1.046       .  S
N1221      H1738   1.045       .  S
N1224      H1227   1.046       .  S
N1224      H1740   1.046       .  S
H1226      N1733   1.046       .  S
H1228      N1736   1.046       .  S
C1229      C1230   1.405       .  A
C1229      H1236   1.084       .  S
C1230      C1231   1.402   1_565  A
C1231      N1238   1.432       .  S
C1232      C1233   1.409       .  A
C1232      H1237   1.084       .  S
C1233      C1234   1.412   1_545  A
C1234      N1235   1.433       .  S
N1235      H1240   1.045       .  S
N1238      H1241   1.046       .  S
C1243      C1244   1.404       .  A
C1243      C1248   1.411       .  A
C1243      H1250   1.084       .  S
C1244      C1245   1.408       .  A
C1245      C1246   1.410       .  A
C1245      N1252   1.432       .  S
C1246      C1247   1.409       .  A
C1246      H1251   1.084       .  S
C1247      C1248   1.413       .  A
C1248      N1249   1.432       .  S
N1249      H1253   1.046       .  S
N1249      H1254   1.046       .  S
N1252      H1255   1.046       .  S
N1252      H1256   1.046       .  S
C1257      C1258   1.407       .  A
C1257      C1262   1.413       .  A
C1257      H1264   1.084       .  S
C1258      C1259   1.405       .  A
C1259      C1260   1.402       .  A
C1260      C1261   1.406       .  A
C1260      H1265   1.084       .  S
C1261      C1262   1.411       .  A
C1262      N1263   1.437       .  S
N1263      H1267   1.045       .  S
N1263      H1268   1.046       .  S
N1266      H1269   1.046   1_655  S
N1266      H1270   1.046       .  S
C1271      C1272   1.404       .  A
C1271      C1788   1.397   1_554  A
C1271      H1278   1.084       .  S
C1272      C1273   1.405   1_565  A
C1273      C1786   1.397   1_554  A
C1273      N1280   1.438       .  S
C1274      C1785   1.394       .  A
C1274      C1275   1.409       .  A
C1274      H1279   1.083       .  S
C1275      C1276   1.413   1_545  A
C1276      C1783   1.397       .  A
C1276      N1277   1.438       .  S
N1277      H1793   1.046       .  S
N1277      H1282   1.046       .  S
N1280      H1283   1.045       .  S
N1280      H1796   1.046       .  S
H1281      N1789   1.046       .  S
H1284      N1792   1.047       .  S
C1285      C1286   1.411       .  A
C1285      C1802   1.403   1_554  A
C1285      H1292   1.083       .  S
C1286      C1287   1.409       .  A
C1287      C1288   1.402       .  A
C1287      N1294   1.438       .  S
C1288      C1801   1.412   1_554  A
C1288      H1293   1.083       .  S
C1289      C1800   1.410       .  A
C1289      C1290   1.409       .  A
C1290      C1797   1.405       .  A
C1290      N1291   1.438       .  S
N1291      H1295   1.044       .  S
N1291      H1296   1.047       .  S
N1294      H1297   1.046       .  S
N1294      H1298   1.046       .  S
C1299      C1300   1.414       .  A
C1299      C1304   1.403       .  A
C1299      H1306   1.083       .  S
C1300      C1301   1.411       .  A
C1301      C1302   1.403       .  A
C1301      N1308   1.438       .  S
C1302      C1303   1.408       .  A
C1302      H1307   1.083       .  S
C1303      C1304   1.404       .  A
C1304      N1305   1.438       .  S
N1305      H1309   1.046       .  S
N1305      H1310   1.046       .  S
N1308      H1311   1.046       .  S
N1308      H1312   1.046       .  S
C1313      C1314   1.401       .  A
C1313      C1318   1.406       .  A
C1313      H1320   1.084       .  S
C1314      C1315   1.406       .  A
C1315      C1316   1.407       .  A
C1315      N1322   1.438   1_545  S
C1316      C1317   1.410       .  A
C1316      H1321   1.084   1_655  S
C1317      C1318   1.424       .  A
N1319      H1323   1.044       .  S
N1319      H1324   1.046       .  S
N1322      H1325   1.045   1_565  S
N1322      H1326   1.046       .  S
C1327      C1328   1.399       .  A
C1327      C1332   1.403       .  A
C1327      H1334   1.084       .  S
C1328      C1329   1.409       .  A
C1329      C1330   1.409       .  A
C1329      N1336   1.432       .  S
C1330      C1331   1.404       .  A
C1330      H1335   1.084       .  S
C1331      C1332   1.415       .  A
C1332      N1333   1.438       .  S
N1333      H1337   1.046       .  S
N1333      H1338   1.045       .  S
N1336      H1339   1.046       .  S
N1336      H1340   1.045       .  S
C1341      C1342   1.399       .  A
C1341      C1346   1.405       .  A
C1341      H1348   1.084       .  S
C1342      C1343   1.416       .  A
C1343      C1344   1.406       .  A
C1343      N1350   1.433       .  S
C1344      C1345   1.401       .  A
C1344      H1349   1.084       .  S
C1345      C1346   1.419       .  A
C1346      N1347   1.433       .  S
N1347      H1351   1.045       .  S
N1347      H1352   1.046       .  S
N1350      H1353   1.046       .  S
N1350      H1354   1.046       .  S
C1355      C1356   1.404       .  A
C1355      C1360   1.407       .  A
C1355      H1362   1.084       .  S
C1356      C1357   1.423       .  A
C1357      C1358   1.401       .  A
C1357      N1364   1.433       .  S
C1358      C1359   1.400       .  A
C1358      H1363   1.084       .  S
C1359      C1360   1.422       .  A
C1360      N1361   1.433       .  S
N1361      H1365   1.044       .  S
N1361      H1366   1.045       .  S
N1364      H1367   1.044       .  S
N1364      H1368   1.044       .  S
C1369      C1370   1.409       .  A
C1369      C1886   1.399   1_554  A
C1369      H1376   1.084       .  S
C1370      C1371   1.420       .  A
C1371      C1884   1.404   1_554  A
C1371      N1378   1.432       .  S
C1372      C1883   1.408       .  A
C1372      C1373   1.408       .  A
C1372      H1377   1.084       .  S
C1373      C1374   1.416       .  A
C1374      C1881   1.395       .  A
C1374      N1375   1.433       .  S
N1375      H1379   1.046       .  S
N1375      H1380   1.046       .  S
N1378      H1381   1.045       .  S
N1378      H1382   1.045       .  S
C1383      C1384   1.405       .  A
C1383      C1388   1.399       .  A
C1383      H1390   1.084       .  S
C1384      C1385   1.414       .  A
C1385      C1386   1.410       .  A
C1385      N1392   1.437       .  S
C1386      C1387   1.403       .  A
C1386      H1391   1.084       .  S
C1387      C1388   1.412       .  A
C1388      N1389   1.433       .  S
N1389      H1393   1.046       .  S
N1389      H1394   1.044       .  S
N1392      H1395   1.046       .  S
N1392      H1396   1.045       .  S
C1397      C1398   1.407       .  A
C1397      C1402   1.410       .  A
C1397      H1404   1.083       .  S
C1398      C1399   1.418       .  A
C1399      C1400   1.403       .  A
C1399      N1406   1.436       .  S
C1400      C1401   1.403       .  A
C1400      H1405   1.083       .  S
C1401      C1402   1.418       .  A
C1402      N1403   1.438       .  S
N1403      H1407   1.046       .  S
N1403      H1408   1.045       .  S
N1406      H1409   1.044       .  S
N1406      H1410   1.046       .  S
C1411      C1416   1.390       .  A
C1411      H1418   1.084       .  S
C1412      C1413   1.409       .  A
C1413      C1414   1.401       .  A
C1413      N1420   1.438       .  S
C1414      H1419   1.084       .  S
C1415      C1416   1.401       .  A
C1416      N1417   1.433       .  S
N1417      H1421   1.045       .  S
N1417      H1422   1.046       .  S
N1420      H1423   1.046       .  S
N1420      H1424   1.045       .  S
C1425      C1426   1.410       .  A
C1425      C1430   1.411       .  A
C1425      H1432   1.084       .  S
C1426      C1427   1.423       .  A
C1427      C1428   1.405       .  A
C1427      N1434   1.432       .  S
C1428      C1429   1.401       .  A
C1428      H1433   1.084       .  S
C1429      C1430   1.409       .  A
C1430      N1431   1.438       .  S
N1431      H1435   1.046       .  S
N1431      H1436   1.045       .  S
N1434      H1437   1.045       .  S
N1434      H1438   1.044       .  S
C1439      C1440   1.401       .  A
C1439      C1444   1.401       .  A
C1440      C1441   1.413       .  A
C1441      C1442   1.414       .  A
C1441      N1448   1.437       .  S
C1442      C1443   1.405       .  A
C1442      H1447   1.084       .  S
C1443      C1444   1.411       .  A
C1444      N1445   1.433       .  S
N1445      H1449   1.045       .  S
N1445      H1450   1.046       .  S
N1448      H1451   1.045       .  S
N1448      H1452   1.046       .  S
C1453      C1454   1.403       .  A
C1453      C1458   1.414       .  A
C1453      H1460   1.084       .  S
C1454      C1455   1.409       .  A
C1455      C1456   1.403       .  A
C1455      N1462   1.433       .  S
C1456      C1457   1.407       .  A
C1456      H1461   1.083       .  S
C1457      C1458   1.421       .  A
C1458      N1459   1.438       .  S
N1459      H1463   1.045       .  S
N1459      H1464   1.046       .  S
N1462      H1465   1.046       .  S
N1462      H1466   1.046       .  S
C1467      C1468   1.405       .  A
C1467      C1472   1.399       .  A
C1467      H1474   1.084       .  S
C1468      C1469   1.408       .  A
C1469      C1470   1.394       .  A
C1469      N1476   1.433       .  S
C1470      C1471   1.404       .  A
C1470      H1475   1.084       .  S
C1471      C1472   1.413       .  A
C1472      N1473   1.439       .  S
N1473      H1477   1.046       .  S
N1473      H1478   1.045       .  S
N1476      H1479   1.046       .  S
N1476      H1480   1.046       .  S
C1481      C1482   1.402       .  A
C1481      C1486   1.401       .  A
C1481      H1488   1.084       .  S
C1482      C1483   1.416       .  A
C1483      C1484   1.406       .  A
C1483      N1490   1.433       .  S
C1484      C1485   1.399       .  A
C1484      H1489   1.084       .  S
C1485      C1486   1.410       .  A
C1486      N1487   1.433       .  S
N1487      H1491   1.046       .  S
N1487      H1492   1.045       .  S
N1490      H1493   1.045       .  S
N1490      H1494   1.046       .  S
C1495      C1496   1.407       .  A
C1495      C2012   1.402       .  A
C1495      H1502   1.084       .  S
C1496      C1497   1.420       .  A
C1497      C2010   1.400       .  A
C1497      N1504   1.433       .  S
C1498      C2009   1.395   1_554  A
C1498      C1499   1.398       .  A
C1498      H1503   1.085       .  S
C1499      C1500   1.410       .  A
C1500      C2007   1.401   1_554  A
C1500      N1501   1.430       .  S
N1501      H1505   1.046       .  S
N1501      H1506   1.045       .  S
N1504      H1507   1.045       .  S
N1504      H1508   1.046       .  S
C1509      C1510   1.403       .  A
C1509      C1514   1.403       .  A
C1510      C1511   1.422       .  A
C1511      C1512   1.409       .  A
C1511      N1518   1.432       .  S
C1512      C1513   1.404       .  A
C1512      H1517   1.084       .  S
C1513      C1514   1.411       .  A
C1514      N1515   1.433       .  S
N1515      H1519   1.046       .  S
N1515      H1520   1.045       .  S
N1518      H1521   1.044       .  S
N1518      H1522   1.046       .  S
C1523      C1524   1.410       .  A
C1523      C1528   1.416       .  A
C1523      H1530   1.083       .  S
C1524      C1525   1.412       .  A
C1525      C1526   1.401       .  A
C1525      N1532   1.434       .  S
C1526      C1527   1.405       .  A
C1526      H1531   1.084       .  S
C1527      C1528   1.413       .  A
C1528      N1529   1.435       .  S
N1529      H1533   1.046       .  S
N1529      H1534   1.045       .  S
N1532      H1535   1.046       .  S
N1532      H1536   1.045       .  S
O1537     Cr1555   1.993       .  S
O1537      C1545   1.268       .  A
O1538     Cr1555   1.967       .  S
O1538      C1539   1.259       .  A
C1539      O1540   1.269       .  A
C1539      C2036   1.488       .  S
O1540     Cr1556   2.019       .  S
O1541     Cr1556   2.000       .  S
O1541      C1542   1.263       .  A
C1542      O1543   1.254       .  A
C1542      C1966   1.482       .  S
O1543     Cr1557   1.976       .  S
O1544     Cr1557   1.985       .  S
O1544      C1545   1.270       .  A
C1545      C2008   1.477       .  S
O1546     Cr1555   2.008       .  S
O1546      C1554   1.258       .  A
O1547     Cr1555   1.976       .  S
O1547      C1548   1.259       .  A
C1548      O1549   1.254       .  A
C1548      C1983   1.464       .  S
O1549     Cr1556   1.948       .  S
O1550     Cr1556   2.006       .  S
O1550      C1551   1.271       .  A
C1551      O1552   1.272       .  A
C1551      C1994   1.478       .  S
O1552     Cr1557   1.984       .  S
O1553     Cr1557   1.998       .  S
O1553      C1554   1.257       .  A
C1554      C2025   1.490       .  S
Cr1555     O1558   1.770       .  S
Cr1556     O1558   1.780       .  S
Cr1557     O1558   1.765       .  S
O1559     Cr1577   1.942       .  S
O1559      C1567   1.256       .  A
O1560     Cr1577   1.989       .  S
O1560      C1561   1.266       .  A
C1561      O1562   1.267       .  A
O1562     Cr1578   1.992       .  S
O1563     Cr1578   2.015       .  S
O1563      C1564   1.264       .  A
C1564      O1565   1.254       .  A
C1564      C1910   1.496       .  S
O1565     Cr1579   1.970       .  S
O1566     Cr1579   2.032       .  S
O1566      C1567   1.275       .  A
C1567      C2011   1.465       .  S
O1568     Cr1577   2.016       .  S
O1568      C1576   1.260       .  A
O1569     Cr1577   1.979       .  S
O1569      C1570   1.263       .  A
C1570      O1571   1.262       .  A
C1570      C1924   1.468       .  S
O1571     Cr1578   1.988       .  S
O1572     Cr1578   1.951       .  S
O1572      C1573   1.256       .  A
C1573      O1574   1.272       .  A
C1573      C1997   1.468       .  S
O1574     Cr1579   2.026       .  S
O1575     Cr1579   1.985       .  S
O1575      C1576   1.254       .  A
C1576      C1941   1.485       .  S
Cr1577     O1580   1.772       .  S
Cr1578     O1580   1.779       .  S
Cr1579     O1580   1.770       .  S
O1581     Cr1599   1.986       .  S
O1581      C1589   1.268       .  A
O1582     Cr1599   1.985       .  S
O1582      C1583   1.258       .  A
C1583      O1584   1.269       .  A
C1583      C1868   1.486       .  S
O1584     Cr1600   2.001       .  S
O1585     Cr1600   2.029       .  S
O1585      C1586   1.269       .  A
C1586      O1587   1.258       .  A
C1586      C1938   1.500       .  S
O1587     Cr1601   1.974       .  S
O1588     Cr1601   1.999       .  S
O1588      C1589   1.271       .  A
C1589      C1882   1.476       .  S
O1590     Cr1599   2.001       .  S
O1590      C1598   1.259       .  A
O1591     Cr1599   2.003       .  S
O1591      C1592   1.271       .  A
C1592      O1593   1.266       .  A
C1592      C1899   1.471       .  S
O1593     Cr1600   2.000       .  S
O1594     Cr1600   1.944       .  S
O1594      C1595   1.255       .  A
C1595      O1596   1.263       .  A
C1595      C1980   1.468       .  S
O1596     Cr1601   1.989       .  S
O1597     Cr1601   2.003       .  S
O1597      C1598   1.257       .  A
C1598      C1955   1.490       .  S
Cr1599     O1602   1.764       .  S
Cr1600     O1602   1.776       .  S
Cr1601     O1602   1.769       .  S
O1603     Cr1621   1.986       .  S
O1603      C1611   1.272       .  A
O1604     Cr1621   1.980       .  S
O1604      C1605   1.255       .  A
C1605      O1606   1.266       .  A
C1605      C1854   1.484       .  S
O1606     Cr1622   2.000       .  S
O1607     Cr1622   2.020       .  S
O1607      C1608   1.268       .  A
C1608      O1609   1.257       .  A
O1609     Cr1623   1.964       .  S
O1610     Cr1623   2.013       .  S
O1610      C1611   1.276       .  A
C1611      C1885   1.480       .  S
O1612     Cr1621   1.990       .  S
O1612      C1620   1.253       .  A
O1613     Cr1621   2.005       .  S
O1613      C1614   1.275       .  A
C1614      O1615   1.270       .  A
C1614      C1896   1.487       .  S
O1615     Cr1622   2.000       .  S
O1616     Cr1622   1.946       .  S
O1616      C1617   1.253       .  A
C1617      O1618   1.265       .  A
C1617      C1927   1.464       .  S
O1618     Cr1623   1.992       .  S
O1619     Cr1623   2.008       .  S
O1619      C1620   1.255       .  A
C1620      C2039   1.488       .  S
Cr1621     O1624   1.766       .  S
Cr1622     O1624   1.780       .  S
Cr1623     O1624   1.765       .  S
O1625     Cr1643   2.025       .  S
O1625      C1633   1.277       .  A
O1626     Cr1643   1.972       .  S
O1626      C1627   1.256       .  A
C1627      O1628   1.264       .  A
C1627      C1913   1.496       .  S
O1628     Cr1644   2.004       .  S
O1629     Cr1644   2.007       .  S
O1629      C1630   1.266       .  A
C1630      O1631   1.258       .  A
C1630      C1840   1.470       .  S
O1631     Cr1645   1.982       .  S
O1632     Cr1645   1.939       .  S
O1632      C1633   1.259       .  A
C1633      C1812   1.478       .  S
O1634     Cr1643   1.986       .  S
O1634      C1642   1.253       .  A
O1635     Cr1643   2.013       .  S
O1635      C1636   1.270       .  A
C1636      O1637   1.257       .  A
C1636      C1798   1.476       .  S
O1637     Cr1644   1.951       .  S
O1638     Cr1644   1.990       .  S
O1638      C1639   1.267       .  A
C1639      O1640   1.263       .  A
C1639      C1784   1.450       .  S
O1640     Cr1645   1.964       .  S
O1641     Cr1645   2.001       .  S
O1641      C1642   1.254       .  A
C1642      C1826   1.475   1_565  S
Cr1643     O1646   1.769       .  S
Cr1644     O1646   1.776       .  S
Cr1645     O1646   1.774       .  S
O1647     Cr1665   2.033       .  S
O1647      C1655   1.278       .  A
O1648     Cr1665   1.974       .  S
O1648      C1649   1.256       .  A
C1649      O1650   1.263       .  A
C1649      C1969   1.495       .  S
O1650     Cr1666   1.996       .  S
O1651     Cr1666   1.994       .  S
O1651      C1652   1.264       .  A
C1652      O1653   1.264       .  A
O1653     Cr1667   1.998       .  S
O1654     Cr1667   1.935       .  S
O1654      C1655   1.260       .  A
C1655      C1815   1.469       .  S
O1656     Cr1665   1.986       .  S
O1656      C1664   1.253       .  A
O1657     Cr1665   2.019       .  S
O1657      C1658   1.272       .  A
C1658      O1659   1.256       .  A
C1658      C1801   1.487       .  S
O1659     Cr1666   1.943       .  S
O1660     Cr1666   1.986       .  S
O1660      C1661   1.265       .  A
C1661      O1662   1.265       .  A
C1661      C1742   1.465       .  S
O1662     Cr1667   1.978       .  S
O1663     Cr1667   2.015       .  S
O1663      C1664   1.256       .  A
C1664      C1756   1.482   1_565  S
Cr1665     O1668   1.771       .  S
Cr1666     O1668   1.775       .  S
Cr1667     O1668   1.774       .  S
O1669     Cr1687   2.000       .  S
O1669      C1677   1.271       .  A
O1670     Cr1687   1.959       .  S
O1670      C1671   1.255       .  A
C1671      O1672   1.270       .  A
O1672     Cr1688   2.030       .  S
O1673     Cr1688   2.003       .  S
O1673      C1674   1.267       .  A
C1674      O1675   1.256       .  A
C1674      C1871   1.484       .  S
O1675     Cr1689   1.982       .  S
O1676     Cr1689   1.993       .  S
O1676      C1677   1.269       .  A
C1677      C1714   1.485       .  S
O1678     Cr1687   1.989       .  S
O1678      C1686   1.255       .  A
O1679     Cr1687   1.993       .  S
O1679      C1680   1.263       .  A
C1680      O1681   1.252       .  A
C1680      C1745   1.458       .  S
O1681     Cr1688   1.948       .  S
O1682     Cr1688   2.005       .  S
O1682      C1683   1.271       .  A
C1683      O1684   1.273       .  A
C1683      C1728   1.483       .  S
O1684     Cr1689   2.000       .  S
O1685     Cr1689   2.009       .  S
O1685      C1686   1.259       .  A
C1686      C1843   1.482   1_545  S
Cr1687     O1690   1.763       .  S
Cr1688     O1690   1.776       .  S
Cr1689     O1690   1.770       .  S
O1691     Cr1709   2.004       .  S
O1691      C1699   1.271       .  A
O1692     Cr1709   1.971       .  S
O1692      C1693   1.257       .  A
C1693      O1694   1.269       .  A
C1693      C1759   1.490       .  S
O1694     Cr1710   2.024       .  S
O1695     Cr1710   1.996       .  S
O1695      C1696   1.267       .  A
C1696      O1697   1.260       .  A
C1696      C1857   1.484       .  S
O1697     Cr1711   1.986       .  S
O1698     Cr1711   1.987       .  S
O1698      C1699   1.268       .  A
C1699      C1717   1.483       .  S
O1700     Cr1709   1.997       .  S
O1700      C1708   1.258       .  A
O1701     Cr1709   2.006       .  S
O1701      C1702   1.265       .  A
C1702      O1703   1.253       .  A
C1702      C1787   1.472       .  S
O1703     Cr1710   1.942       .  S
O1704     Cr1710   2.001       .  S
O1704      C1705   1.269       .  A
C1705      O1706   1.270       .  A
C1705      C1731   1.485       .  S
O1706     Cr1711   1.995       .  S
O1707     Cr1711   2.000       .  S
O1707      C1708   1.259       .  A
C1708      C1773   1.478   1_545  S
Cr1709     O1712   1.767       .  S
Cr1710     O1712   1.771       .  S
Cr1711     O1712   1.766       .  S
C1713      C1714   1.404       .  A
C1713      C1718   1.396       .  A
C1713      H1720   1.084       .  S
C1714      C1715   1.416       .  A
C1715      C1716   1.412       .  A
C1715      N1722   1.438       .  S
C1716      C1717   1.407       .  A
C1716      H1721   1.084       .  S
C1717      C1718   1.410       .  A
C1718      N1719   1.433   1_545  S
N1719      H1723   1.046       .  S
N1719      H1724   1.046       .  S
N1722      H1725   1.046       .  S
N1722      H1726   1.046       .  S
C1727      C1728   1.410       .  A
C1727      C1732   1.406       .  A
C1727      H1734   1.082       .  S
C1728      C1729   1.404       .  A
C1729      N1736   1.432       .  S
C1730      C1731   1.412       .  A
C1730      H1735   1.084       .  S
C1732      N1733   1.432       .  S
N1733      H1737   1.046       .  S
N1736      H1739   1.046       .  S
C1741      C1742   1.406       .  A
C1741      H1748   1.084       .  S
C1742      C1743   1.403   1_565  A
C1743      N1750   1.432       .  S
C1744      C1745   1.402       .  A
C1744      H1749   1.084       .  S
C1745      C1746   1.406   1_545  A
C1746      N1747   1.433       .  S
N1747      H1752   1.045       .  S
N1750      H1753   1.046       .  S
C1755      C1756   1.405       .  A
C1755      C1760   1.411       .  A
C1755      H1762   1.083       .  S
C1756      C1757   1.405       .  A
C1757      C1758   1.406       .  A
C1757      N1764   1.432       .  S
C1758      C1759   1.408       .  A
C1758      H1763   1.084       .  S
C1759      C1760   1.414       .  A
C1760      N1761   1.433       .  S
N1761      H1765   1.046       .  S
N1761      H1766   1.046       .  S
N1764      H1767   1.046       .  S
N1764      H1768   1.045       .  S
C1769      C1770   1.408       .  A
C1769      C1774   1.412       .  A
C1769      H1776   1.084       .  S
C1770      C1771   1.404       .  A
C1771      C1772   1.403       .  A
C1772      C1773   1.404       .  A
C1772      H1777   1.084       .  S
C1773      C1774   1.410       .  A
C1774      N1775   1.438       .  S
N1775      H1779   1.046       .  S
N1775      H1780   1.046       .  S
N1778      H1781   1.046       .  S
N1778      H1782   1.046       .  S
C1783      C1784   1.400       .  A
C1783      H1790   1.085       .  S
C1784      C1785   1.401   1_565  A
C1785      N1792   1.439       .  S
C1786      C1787   1.409       .  A
C1786      H1791   1.083       .  S
C1787      C1788   1.407   1_545  A
C1788      N1789   1.433       .  S
N1789      H1794   1.046       .  S
N1792      H1795   1.045       .  S
C1797      C1798   1.408       .  A
C1797      H1804   1.084       .  S
C1798      C1799   1.408       .  A
C1799      C1800   1.401       .  A
C1799      N1806   1.438       .  S
C1800      H1805   1.083       .  S
C1801      C1802   1.410       .  A
C1802      N1803   1.438       .  S
N1803      H1807   1.046       .  S
N1803      H1808   1.046       .  S
N1806      H1809   1.046       .  S
N1806      H1810   1.045       .  S
C1811      C1812   1.412       .  A
C1811      C1816   1.403       .  A
C1811      H1818   1.083       .  S
C1812      C1813   1.406       .  A
C1813      C1814   1.395       .  A
C1813      N1820   1.433       .  S
C1814      C1815   1.405       .  A
C1814      H1819   1.082       .  S
C1815      C1816   1.405       .  A
C1816      N1817   1.438       .  S
N1817      H1821   1.045       .  S
N1817      H1822   1.046       .  S
N1820      H1823   1.046       .  S
N1820      H1824   1.046       .  S
C1825      C1826   1.399       .  A
C1825      C1830   1.403       .  A
C1825      H1832   1.084       .  S
C1826      C1827   1.407       .  A
C1827      C1828   1.409       .  A
C1827      N1834   1.438   1_545  S
C1828      C1829   1.410       .  A
C1828      H1833   1.084   1_655  S
C1829      C1830   1.423       .  A
N1831      H1835   1.044       .  S
N1831      H1836   1.045       .  S
N1834      H1837   1.045   1_565  S
N1834      H1838   1.046   1_565  S
C1839      C1840   1.402       .  A
C1839      C1844   1.408       .  A
C1839      H1846   1.084       .  S
C1840      C1841   1.409       .  A
C1841      C1842   1.406       .  A
C1841      N1848   1.432       .  S
C1842      C1843   1.403       .  A
C1842      H1847   1.084       .  S
C1843      C1844   1.414       .  A
C1844      N1845   1.438       .  S
N1845      H1849   1.046       .  S
N1845      H1850   1.046       .  S
N1848      H1851   1.046       .  S
N1848      H1852   1.045       .  S
C1853      C1854   1.400       .  A
C1853      C1858   1.404       .  A
C1853      H1860   1.084       .  S
C1854      C1855   1.418       .  A
C1855      C1856   1.406       .  A
C1855      N1862   1.433       .  S
C1856      C1857   1.401       .  A
C1856      H1861   1.084       .  S
C1857      C1858   1.416       .  A
C1858      N1859   1.433       .  S
N1859      H1863   1.046       .  S
N1859      H1864   1.046       .  S
N1862      H1865   1.046       .  S
N1862      H1866   1.046       .  S
C1867      C1868   1.402       .  A
C1867      C1872   1.403       .  A
C1867      H1874   1.084       .  S
C1868      C1869   1.423       .  A
C1869      C1870   1.400       .  A
C1869      N1876   1.433       .  S
C1870      C1871   1.400       .  A
C1870      H1875   1.084       .  S
C1871      C1872   1.421       .  A
C1872      N1873   1.434       .  S
N1873      H1877   1.043       .  S
N1873      H1878   1.046       .  S
N1876      H1879   1.046       .  S
N1876      H1880   1.044       .  S
C1881      C1882   1.400       .  A
C1881      H1888   1.084       .  S
C1882      C1883   1.410       .  A
C1883      N1890   1.432       .  S
C1884      C1885   1.404       .  A
C1884      H1889   1.084       .  S
C1885      C1886   1.407       .  A
C1886      N1887   1.433       .  S
N1887      H1891   1.046       .  S
N1887      H1892   1.046       .  S
N1890      H1893   1.046       .  S
N1890      H1894   1.045       .  S
C1895      C1896   1.409       .  A
C1895      C1900   1.399       .  A
C1895      H1902   1.084       .  S
C1896      C1897   1.412       .  A
C1897      C1898   1.407       .  A
C1897      N1904   1.431       .  S
C1898      C1899   1.403       .  A
C1898      H1903   1.084       .  S
C1899      C1900   1.410       .  A
C1900      N1901   1.433       .  S
N1901      H1905   1.046       .  S
N1901      H1906   1.045       .  S
N1904      H1907   1.045       .  S
N1904      H1908   1.045       .  S
C1909      C1910   1.408       .  A
C1909      C1914   1.411       .  A
C1909      H1916   1.083       .  S
C1910      C1911   1.414       .  A
C1911      C1912   1.404       .  A
C1911      N1918   1.432       .  S
C1912      C1913   1.406       .  A
C1912      H1917   1.084       .  S
C1913      C1914   1.417       .  A
C1914      N1915   1.438       .  S
N1915      H1919   1.046       .  S
N1915      H1920   1.046       .  S
N1918      H1921   1.046       .  S
N1918      H1922   1.046       .  S
C1923      C1928   1.393       .  A
C1923      H1930   1.083       .  S
C1924      C1925   1.407       .  A
C1925      C1926   1.400   1_655  A
C1925      N1932   1.438       .  S
C1926      H1931   1.083       .  S
C1927      C1928   1.403       .  A
C1928      N1929   1.437       .  S
N1929      H1933   1.044       .  S
N1929      H1934   1.046       .  S
N1932      H1935   1.045       .  S
N1932      H1936   1.046       .  S
C1937      C1938   1.409       .  A
C1937      C1942   1.412       .  A
C1937      H1944   1.084       .  S
C1938      C1939   1.423       .  A
C1939      C1940   1.406       .  A
C1939      N1946   1.432       .  S
C1940      C1941   1.402       .  A
C1940      H1945   1.084       .  S
C1941      C1942   1.410       .  A
C1942      N1943   1.438       .  S
N1943      H1947   1.045       .  S
N1943      H1948   1.046       .  S
N1946      H1949   1.048       .  S
N1946      H1950   1.040       .  S
C1951      C1952   1.402       .  A
C1951      C1956   1.403       .  A
C1952      C1953   1.414       .  A
C1953      C1954   1.416       .  A
C1953      N1960   1.436       .  S
C1954      C1955   1.405       .  A
C1954      H1959   1.083       .  S
C1955      C1956   1.412       .  A
C1956      N1957   1.433       .  S
N1957      H1961   1.046       .  S
N1957      H1962   1.046       .  S
N1960      H1963   1.046       .  S
N1960      H1964   1.046       .  S
C1965      C1966   1.403       .  A
C1965      C1970   1.414       .  A
C1965      H1972   1.084       .  S
C1966      C1967   1.410       .  A
C1967      C1968   1.399       .  A
C1967      N1974   1.433       .  S
C1968      C1969   1.406       .  A
C1968      H1973   1.084       .  S
C1969      C1970   1.422       .  A
C1970      N1971   1.437       .  S
N1971      H1975   1.046       .  S
N1971      H1976   1.046       .  S
N1974      H1977   1.045       .  S
N1974      H1978   1.046       .  S
C1979      C1980   1.406       .  A
C1979      C1984   1.395       .  A
C1979      H1986   1.084       .  S
C1980      C1981   1.412       .  A
C1981      C1982   1.396       .  A
C1981      N1988   1.439       .  S
C1982      C1983   1.403       .  A
C1982      H1987   1.084       .  S
C1983      C1984   1.409       .  A
C1984      N1985   1.439       .  S
N1985      H1989   1.046       .  S
N1985      H1990   1.046       .  S
N1988      H1991   1.045       .  S
N1988      H1992   1.046       .  S
C1993      C1994   1.401       .  A
C1993      C1998   1.398       .  A
C1993      H2000   1.084       .  S
C1994      C1995   1.415       .  A
C1995      C1996   1.405       .  A
C1995      N2002   1.432       .  S
C1996      C1997   1.399       .  A
C1996      H2001   1.084       .  S
C1997      C1998   1.409       .  A
C1998      N1999   1.433       .  S
N1999      H2003   1.046       .  S
N1999      H2004   1.045       .  S
N2002      H2005   1.046       .  S
N2002      H2006   1.046       .  S
C2007      C2008   1.405       .  A
C2007      H2014   1.084       .  S
C2008      C2009   1.414       .  A
C2009      N2016   1.433       .  S
C2010      C2011   1.396       .  A
C2010      H2015   1.085       .  S
C2011      C2012   1.411       .  A
C2012      N2013   1.432       .  S
N2013      H2017   1.046       .  S
N2013      H2018   1.044       .  S
N2016      H2019   1.046       .  S
N2016      H2020   1.046       .  S
C2021      C2022   1.405       .  A
C2021      C2026   1.403       .  A
C2022      C2023   1.422       .  A
C2023      C2024   1.410       .  A
C2023      N2030   1.432       .  S
C2024      C2025   1.404       .  A
C2024      H2029   1.084       .  S
C2025      C2026   1.412       .  A
C2026      N2027   1.433       .  S
N2027      H2031   1.046       .  S
N2027      H2032   1.045       .  S
N2030      H2033   1.044       .  S
N2030      H2034   1.046       .  S
C2035      C2036   1.409       .  A
C2035      C2040   1.414       .  A
C2035      H2042   1.083       .  S
C2036      C2037   1.410       .  A
C2037      C2038   1.401       .  A
C2037      N2044   1.433       .  S
C2038      C2039   1.406       .  A
C2038      H2043   1.084       .  S
C2039      C2040   1.411       .  A
C2040      N2041   1.435       .  S
N2041      H2045   1.046       .  S
N2041      H2046   1.045       .  S
N2044      H2047   1.046       .  S
N2044      H2048   1.046       .  S
