geometry optimzed in LAMMPS
_audit_creation_date              2020-12-01 
_audit_creation_method            'lammps2cif' 
_symmetry_space_group_name_H-M    'P1' 
_symmetry_Int_Tables_number       1 
_symmetry_cell_setting            triclinic 
loop_ 
_symmetry_equiv_pos_as_xyz 
  x,y,z 
_cell_length_a                    58.3536677 
_cell_length_b                    31.258499154177013 
_cell_length_c                    57.97058289406421 
_cell_angle_alpha                 89.93720052677376 
_cell_angle_beta                  90.1289023967824 
_cell_angle_gamma                 89.96612214104697 
loop_ 
_atom_site_label 
_atom_site_type_symbol 
_atom_site_fract_x 
_atom_site_fract_y 
_atom_site_fract_z 
_atom_site_charge 
Zr1        Zr  0.60330940  0.23669083  0.85340584     2.17500
O2          O  0.57323585  0.20516558  0.82955795    -0.51600
O3          O  0.61265160  0.16129281  0.86099700    -0.74800
O4          O  0.61517294  0.22650047  0.81293073    -0.81600
O5          O  0.55787090  0.27213146  0.89855048    -0.83300
O6          O  0.65055827  0.25518126  0.80789471    -0.78900
O7          O  0.56347999  0.23157102  0.86638388    -0.90600
O8          O  0.63990250  0.15939162  0.88876060    -0.76500
O9          O  0.64337614  0.23054863  0.86016536    -0.86000
O10         O  0.60834585  0.23547572  0.89438099    -0.85700
O11         O  0.61945957  0.29989470  0.83595645    -0.72500
O12         O  0.58814726  0.30297707  0.86800365    -0.84600
Zr13       Zr  0.65168530  0.35874306  0.89780514     2.26400
Zr14       Zr  0.65976648  0.29314316  0.84306775     2.06300
Zr15       Zr  0.59450746  0.30244941  0.90879921     2.10000
Zr16       Zr  0.64839553  0.23075672  0.90098599     1.78800
O17         O  0.56409607  0.35255917  0.91862747    -0.93400
O18         O  0.68553692  0.19830376  0.89313267    -0.41200
O19         O  0.63464010  0.29713778  0.91579382    -0.77900
O20         O  0.66609877  0.29114712  0.88401749    -0.96600
O21         O  0.64569556  0.36038128  0.85709134    -0.89900
O22         O  0.61124393  0.36474027  0.89210365    -0.92700
C23         C  0.62661509  0.14101887  0.87430942     1.01100
C24         C  0.55090857  0.24693267  0.88260891     1.14000
C25         C  0.63287236  0.23515256  0.80046130     1.04800
O26         O  0.68989296  0.24310299  0.83247948    -0.94900
O27         O  0.69708241  0.32025354  0.85322072    -0.90600
O28         O  0.69236018  0.35946768  0.88594169    -0.83700
C29         C  0.70483904  0.34257766  0.87000956     1.11400
O30         O  0.58037832  0.36139273  0.81762461    -0.96800
Zr31       Zr  0.60520334  0.36523969  0.85149804     1.88900
O32         O  0.64206735  0.43346985  0.88904512    -0.73500
O33         O  0.66871734  0.34227279  0.81170802    -0.52700
O34         O  0.62011189  0.40618150  0.81906034    -0.97400
O35         O  0.56652468  0.38958694  0.86043595    -0.54600
O36         O  0.61226377  0.43717921  0.86401067    -0.74000
C37         C  0.62697849  0.45449216  0.87741514     0.98400
O38         O  0.67619037  0.40123038  0.92313127    -0.62800
O39         O  0.58528057  0.25451344  0.94060681    -0.57600
O40         O  0.64301677  0.36269515  0.93915758    -0.94300
O41         O  0.60647521  0.33936183  0.94362371    -0.92700
O42         O  0.63526709  0.19706539  0.93648859    -0.93100
O43         O  0.67560272  0.23724108  0.93269963    -0.91900
C44         C  0.62500471  0.35623770  0.95146063     1.17200
H45         H  0.60020684  0.21162869  0.90123540     0.33100
H46         H  0.68191284  0.28596542  0.88820903     0.44000
H47         H  0.60498735  0.38969370  0.89961837     0.37500
H48         H  0.61613829  0.30210314  0.81956483     0.34000
H49         H  0.68531464  0.17067813  0.90150880     0.25800
H50         H  0.67384740  0.36891271  0.81936273     0.31700
H51         H  0.62635649  0.38443100  0.80837704     0.37600
H52         H  0.62467464  0.17409988  0.93153269     0.32100
H53         H  0.59967343  0.25220126  0.94959527     0.31000
H54         H  0.55688942  0.34034759  0.93260628     0.32700
H55         H  0.56505250  0.41776360  0.85277350     0.31600
H56         H  0.67700743  0.26843339  0.93530702     0.35600
H57         H  0.68871340  0.38191592  0.92815034     0.28300
H58         H  0.58007048  0.17918735  0.82263195     0.32600
H59         H  0.57604008  0.39130006  0.81402592     0.35400
H60         H  0.57487637  0.27125467  0.95060537     0.28000
H61         H  0.68364652  0.42277496  0.91311280     0.40900
H62         H  0.68306861  0.21437901  0.83459674     0.31000
H63         H  0.68491195  0.19024480  0.87663669     0.38600
H64         H  0.56688626  0.39635419  0.87710272     0.30400
H65         H  0.68278131  0.33038327  0.80465288     0.30500
H66         H  0.57098046  0.22521628  0.81650551     0.30800
Zr67       Zr  0.60480104  0.73540661  0.85731284     2.17500
O68         O  0.57501337  0.70140325  0.83410245    -0.51600
O69         O  0.61386582  0.66074087  0.86730514    -0.74800
O70         O  0.61654644  0.72386193  0.81670750    -0.81600
O71         O  0.55902931  0.77572912  0.90116301    -0.83300
O72         O  0.65164602  0.75332005  0.81120412    -0.78900
O73         O  0.56500720  0.73225082  0.87021358    -0.90600
O74         O  0.64211248  0.65852989  0.89417698    -0.76500
O75         O  0.64486847  0.72983154  0.86384142    -0.86000
O76         O  0.60996916  0.73639770  0.89826029    -0.85700
O77         O  0.62026927  0.79828152  0.83904232    -0.72500
O78         O  0.58953726  0.80217695  0.87115631    -0.84600
Zr79       Zr  0.65307905  0.85967646  0.90023833     2.26400
Zr80       Zr  0.66056636  0.79238370  0.84599377     2.06300
Zr81       Zr  0.59589724  0.80396481  0.91185840     2.10000
Zr82       Zr  0.65009478  0.73152070  0.90465696     1.78800
O83         O  0.56594173  0.85593086  0.92024025    -0.93400
O84         O  0.68759222  0.70058439  0.89674543    -0.41200
O85         O  0.63614414  0.79851087  0.91886024    -0.77900
O86         O  0.66761842  0.79176911  0.88683701    -0.96600
O87         O  0.64657417  0.85980734  0.85962054    -0.89900
O88         O  0.61270195  0.86565197  0.89454893    -0.92700
C89         C  0.62800148  0.64034241  0.88043710     1.01100
C90         C  0.55222813  0.74941482  0.88571640     1.14000
C91         C  0.63409949  0.73267963  0.80400252     1.04800
O92         O  0.69153359  0.74222760  0.83811233    -0.94900
O93         O  0.69655522  0.82684567  0.85302230    -0.90600
O94         O  0.69344486  0.86088414  0.88752477    -0.83700
C95         C  0.70504307  0.84743007  0.87004124     1.11400
O96         O  0.57660347  0.86046702  0.82437764    -0.96800
Zr97       Zr  0.60617677  0.86413496  0.85409339     1.88900
O98         O  0.64565759  0.93463633  0.88965760    -0.73500
O99         O  0.66924080  0.83947051  0.81366892    -0.52700
O100        O  0.61838568  0.89436226  0.81737007    -0.97400
O101        O  0.57006656  0.89723252  0.86553972    -0.54600
O102        O  0.61743221  0.93602803  0.86284120    -0.74000
C103        C  0.63190427  0.95467396  0.87600664     0.98400
O104        O  0.67846739  0.89632178  0.92728061    -0.62800
O105        O  0.58554349  0.75702112  0.94377517    -0.57600
O106        O  0.64222892  0.86801905  0.94092764    -0.94300
O107        O  0.60610165  0.84304484  0.94636664    -0.92700
O108        O  0.63573800  0.69672018  0.93934282    -0.93100
O109        O  0.67657717  0.73932003  0.93692023    -0.91900
C110        C  0.62437747  0.86153271  0.95352772     1.17200
H111        H  0.60190095  0.71289542  0.90547336     0.33100
H112        H  0.68364317  0.78760695  0.89027007     0.44000
H113        H  0.60674960  0.89145258  0.90164554     0.37500
H114        H  0.61676430  0.79979937  0.82268748     0.34000
H115        H  0.68821846  0.67422426  0.90620246     0.25800
H116        H  0.68151407  0.82453299  0.80508948     0.31700
H117        H  0.63370292  0.90672017  0.82047005     0.37600
H118        H  0.63337098  0.72025692  0.95049732     0.32100
H119        H  0.59768149  0.76129459  0.95549782     0.31000
H120        H  0.55759150  0.84385091  0.93358869     0.32700
H121        H  0.57370224  0.91451308  0.87936696     0.31600
H122        H  0.67998001  0.77033483  0.93748963     0.35600
H123        H  0.69066680  0.87547337  0.93118480     0.28300
H124        H  0.58214043  0.67539375  0.82751468     0.32600
H125        H  0.57306067  0.89053799  0.82030432     0.35400
H126        H  0.57174829  0.77037454  0.95060176     0.28000
H127        H  0.68621568  0.91897894  0.91825218     0.40900
H128        H  0.68406904  0.71384878  0.83712752     0.31000
H129        H  0.68655289  0.69021635  0.88064934     0.38600
H130        H  0.56059731  0.87334006  0.87142749     0.30400
H131        H  0.65566975  0.83771768  0.80343169     0.30500
H132        H  0.57244335  0.72069771  0.82078075     0.30800
Zr133      Zr  0.60296547  0.20903583  0.64733238     2.17500
O134        O  0.57337353  0.24582048  0.66941745    -0.51600
O135        O  0.61299957  0.28400296  0.63915964    -0.74800
O136        O  0.61281341  0.21666469  0.68859587    -0.81600
O137        O  0.55780615  0.17838225  0.60113625    -0.83300
O138        O  0.64748854  0.18522901  0.69358284    -0.78900
O139        O  0.56308350  0.21281571  0.63536653    -0.90600
O140        O  0.64356964  0.28717487  0.61514703    -0.76500
O141        O  0.64321162  0.21348709  0.64172134    -0.86000
O142        O  0.60855214  0.21163915  0.60651645    -0.85700
O143        O  0.61752265  0.14405226  0.66429067    -0.72500
O144        O  0.58716423  0.14413111  0.63146679    -0.84600
Zr145      Zr  0.65064380  0.08655748  0.60258512     2.26400
Zr146      Zr  0.65803199  0.14879343  0.65823421     2.06300
Zr147      Zr  0.59410707  0.14598572  0.59084859     2.10000
Zr148      Zr  0.64871947  0.21544121  0.60093924     1.78800
O149        O  0.56384930  0.09602101  0.58031560    -0.93400
O150        O  0.68742859  0.24200453  0.60753722    -0.41200
O151        O  0.63456203  0.14990904  0.58491010    -0.77900
O152        O  0.66529592  0.15328623  0.61754719    -0.96600
O153        O  0.64349361  0.08289977  0.64303217    -0.89900
O154        O  0.61002125  0.08210310  0.60717431    -0.92700
C155        C  0.62854493  0.30475343  0.62805790     1.01100
C156        C  0.55069203  0.20041633  0.61834192     1.14000
C157        C  0.63006749  0.20589313  0.70125489     1.04800
O158        O  0.68908148  0.19545065  0.67065921    -0.94900
O159        O  0.69466766  0.11755522  0.64847035    -0.90600
O160        O  0.69168428  0.08577476  0.61339336    -0.83700
C161        C  0.70346063  0.09875295  0.63090096     1.11400
O162        O  0.57097272  0.08295690  0.67459875    -0.96800
Zr163      Zr  0.60286487  0.08011674  0.64748994     1.88900
O164        O  0.64409327  0.01139779  0.61364152    -0.73500
O165        O  0.66579378  0.09713584  0.68875038    -0.52700
O166        O  0.61269726  0.05117288  0.68531536    -0.97400
O167        O  0.56795689  0.04562224  0.63364951    -0.54600
O168        O  0.61527061  0.00839952  0.63959909    -0.74000
C169        C  0.63045465  0.99054518  0.62698699     0.98400
O170        O  0.67439886  0.04721638  0.57526514    -0.62800
O171        O  0.58440256  0.19591492  0.55997868    -0.57600
O172        O  0.63998085  0.07843836  0.56192906    -0.94300
O173        O  0.60516088  0.10886652  0.55580879    -0.92700
O174        O  0.63335752  0.25589358  0.56847927    -0.93100
O175        O  0.67343892  0.20964726  0.56729331    -0.91900
C176        C  0.62271166  0.08761096  0.54898371     1.17200
H177        H  0.60070399  0.23627410  0.59981604     0.33100
H178        H  0.68113460  0.15818570  0.61414643     0.44000
H179        H  0.60402643  0.05696765  0.59944522     0.37500
H180        H  0.61367340  0.14116917  0.68039863     0.34000
H181        H  0.68770385  0.27064067  0.60024476     0.25800
H182        H  0.67840988  0.11007578  0.69781221     0.31700
H183        H  0.60791480  0.02079920  0.68481378     0.37600
H184        H  0.62845448  0.23388761  0.55724260     0.32100
H185        H  0.59404612  0.18748735  0.54671188     0.31000
H186        H  0.55636618  0.10907404  0.56667681     0.32700
H187        H  0.57298256  0.02490647  0.62178598     0.31600
H188        H  0.67820240  0.17923852  0.56701817     0.35600
H189        H  0.68581021  0.06810250  0.56955196     0.28300
H190        H  0.58113445  0.27015604  0.67706210     0.32600
H191        H  0.56744176  0.05284554  0.67855647     0.35400
H192        H  0.56863477  0.18805625  0.55528857     0.28000
H193        H  0.68328647  0.02634939  0.58451967     0.40900
H194        H  0.68305422  0.22482776  0.66860052     0.31000
H195        H  0.68814322  0.24778816  0.62431273     0.38600
H196        H  0.55977744  0.06818393  0.62490971     0.30400
H197        H  0.65230051  0.09875021  0.69903482     0.30500
H198        H  0.56911979  0.22600033  0.68203263     0.30800
Zr199      Zr  0.60462483  0.70865156  0.65060959     2.17500
O200        O  0.57535871  0.74585187  0.67291545    -0.51600
O201        O  0.61520500  0.78340947  0.64320381    -0.74800
O202        O  0.61436224  0.71511340  0.69197065    -0.81600
O203        O  0.55845061  0.67451677  0.60655125    -0.83300
O204        O  0.64894527  0.68325030  0.69694043    -0.78900
O205        O  0.56487871  0.71604633  0.63817673    -0.90600
O206        O  0.64267727  0.78523765  0.61580133    -0.76500
O207        O  0.64495461  0.71185662  0.64476338    -0.86000
O208        O  0.61010409  0.71089067  0.60970268    -0.85700
O209        O  0.61874711  0.64312951  0.66750758    -0.72500
O210        O  0.58813280  0.64436379  0.63483989    -0.84600
Zr211      Zr  0.65090761  0.58492629  0.60545297     2.26400
Zr212      Zr  0.65925402  0.64685574  0.66144766     2.06300
Zr213      Zr  0.59489735  0.64566919  0.59420664     2.10000
Zr214      Zr  0.65032464  0.71303982  0.60391772     1.78800
O215        O  0.56424007  0.59739068  0.58260550    -0.93400
O216        O  0.68801872  0.74316525  0.61190651    -0.41200
O217        O  0.63528429  0.64840798  0.58792558    -0.77900
O218        O  0.66657473  0.65065213  0.62070145    -0.96600
O219        O  0.64388010  0.58185998  0.64594907    -0.89900
O220        O  0.61037999  0.58146955  0.61032931    -0.92700
C221        C  0.62920057  0.80369535  0.63003493     1.01100
C222        C  0.55186590  0.70003600  0.62252483     1.14000
C223        C  0.63153748  0.70395433  0.70464339     1.04800
O224        O  0.69051668  0.69448959  0.67213255    -0.94900
O225        O  0.69517537  0.61153488  0.65334841    -0.90600
O226        O  0.69132744  0.58111582  0.61790605    -0.83700
C227        C  0.70330570  0.59250491  0.63559399     1.11400
O228        O  0.57480475  0.58595933  0.68127599    -0.96800
Zr229      Zr  0.60327978  0.57995567  0.65068198     1.88900
O230        O  0.64249104  0.51044866  0.61574513    -0.73500
O231        O  0.66734826  0.59650420  0.69250516    -0.52700
O232        O  0.61388198  0.54231501  0.68597370    -0.97400
O233        O  0.56586887  0.55497393  0.63752775    -0.54600
O234        O  0.61200532  0.50772370  0.63996823    -0.74000
C235        C  0.62737292  0.49001242  0.62754106     0.98400
O236        O  0.67567829  0.54799488  0.57801839    -0.62800
O237        O  0.58638150  0.69679931  0.56357140    -0.57600
O238        O  0.63981243  0.57710608  0.56458581    -0.94300
O239        O  0.60506245  0.60821566  0.55900985    -0.92700
O240        O  0.63717847  0.75003864  0.56934054    -0.93100
O241        O  0.67672340  0.70401817  0.57177881    -0.91900
C242        C  0.62238083  0.58669474  0.55183161     1.17200
H243        H  0.60265804  0.73549616  0.60306874     0.33100
H244        H  0.68259946  0.65450851  0.61750051     0.44000
H245        H  0.60412749  0.55681220  0.60254825     0.37500
H246        H  0.61491921  0.64004640  0.68364411     0.34000
H247        H  0.68923063  0.76820225  0.60149747     0.25800
H248        H  0.67871299  0.61131542  0.70237183     0.31700
H249        H  0.62954187  0.53135337  0.68311818     0.37600
H250        H  0.64720498  0.77548501  0.56810570     0.32100
H251        H  0.57859191  0.67980322  0.55148141     0.31000
H252        H  0.55596650  0.61284443  0.57020993     0.32700
H253        H  0.56301147  0.52830199  0.64627027     0.31600
H254        H  0.67987258  0.67289928  0.57130340     0.35600
H255        H  0.68816058  0.56831686  0.57431089     0.28300
H256        H  0.58335938  0.76945647  0.68096041     0.32600
H257        H  0.56984783  0.55636953  0.68478157     0.35400
H258        H  0.57420256  0.71548345  0.56985315     0.28000
H259        H  0.68312643  0.52457709  0.58678322     0.40900
H260        H  0.69874361  0.70006015  0.65751886     0.31000
H261        H  0.68666365  0.75574058  0.62751159     0.38600
H262        H  0.56822072  0.54525027  0.62147881     0.30400
H263        H  0.65317503  0.59591179  0.70185815     0.30500
H264        H  0.57073032  0.72566266  0.68522457     0.30800
Zr265      Zr  0.40335115  0.20612935  0.85787370     2.17500
O266        O  0.43317186  0.23783497  0.83387197    -0.51600
O267        O  0.39481283  0.28142823  0.86558381    -0.74800
O268        O  0.39093662  0.21680552  0.81749809    -0.81600
O269        O  0.44937052  0.17030349  0.90329692    -0.83300
O270        O  0.35580792  0.18701042  0.81255714    -0.78900
O271        O  0.44320996  0.20974423  0.87088076    -0.90600
O272        O  0.36927566  0.28417773  0.89479679    -0.76500
O273        O  0.36319890  0.21139507  0.86419003    -0.86000
O274        O  0.39822958  0.20807554  0.89878645    -0.85700
O275        O  0.38774561  0.14256964  0.84049221    -0.72500
O276        O  0.41886961  0.14054471  0.87294353    -0.84600
Zr277      Zr  0.35534276  0.08356720  0.90261439     2.26400
Zr278      Zr  0.34741657  0.14777772  0.84751550     2.06300
Zr279      Zr  0.41237206  0.14141770  0.91362734     2.10000
Zr280      Zr  0.35812505  0.21237621  0.90493441     1.78800
O281        O  0.44256132  0.09101831  0.92386603    -0.93400
O282        O  0.32251312  0.24880107  0.89461997    -0.41200
O283        O  0.37202451  0.14606093  0.92033457    -0.77900
O284        O  0.34076092  0.15090673  0.88832942    -0.96600
O285        O  0.36175138  0.08106235  0.86196778    -0.89900
O286        O  0.39582969  0.07870870  0.89705196    -0.92700
C287        C  0.38210777  0.30217553  0.87977999     1.01100
C288        C  0.45622106  0.19482850  0.88698030     1.14000
C289        C  0.37318185  0.20784288  0.80508667     1.04800
O290        O  0.31570678  0.19412456  0.83634830    -0.94900
O291        O  0.31105502  0.11625578  0.85712418    -0.90600
O292        O  0.31409569  0.08275693  0.89173185    -0.83700
C293        C  0.30227502  0.09655175  0.87437121     1.11400
O294        O  0.43216642  0.08192001  0.82731068    -0.96800
Zr295      Zr  0.40229493  0.07788429  0.85658201     1.88900
O296        O  0.36437468  0.00846221  0.89361258    -0.73500
O297        O  0.34011784  0.09724073  0.81641422    -0.52700
O298        O  0.39009216  0.04677682  0.82003809    -0.97400
O299        O  0.43844963  0.04495532  0.86821576    -0.54600
O300        O  0.39228247  0.00603594  0.86650022    -0.74000
C301        C  0.37827216  0.98807847  0.88034515     0.98400
O302        O  0.33146643  0.04200329  0.92890751    -0.62800
O303        O  0.42129196  0.19096024  0.94478871    -0.57600
O304        O  0.36599634  0.07789237  0.94341181    -0.94300
O305        O  0.40208079  0.10335420  0.94844662    -0.92700
O306        O  0.37020337  0.24027937  0.94224993    -0.93100
O307        O  0.32808124  0.20926611  0.93395843    -0.91900
C308        C  0.38393815  0.08478916  0.95583970     1.17200
H309        H  0.40622052  0.23199114  0.90559126     0.33100
H310        H  0.32496603  0.15553942  0.89201764     0.44000
H311        H  0.40202575  0.05365752  0.90449002     0.37500
H312        H  0.39107689  0.14057365  0.82421546     0.34000
H313        H  0.32704867  0.27334125  0.88484328     0.25800
H314        H  0.32698034  0.10963185  0.80787001     0.31700
H315        H  0.37680774  0.02847412  0.82393814     0.37600
H316        H  0.37326018  0.27104483  0.93962201     0.32100
H317        H  0.40776486  0.18992996  0.95504931     0.31000
H318        H  0.45060366  0.10445531  0.93704322     0.32700
H319        H  0.43452963  0.02509148  0.88091541     0.31600
H320        H  0.32905428  0.17985443  0.94025260     0.35600
H321        H  0.31965766  0.06205513  0.93467526     0.28300
H322        H  0.42628501  0.26391126  0.82705250     0.32600
H323        H  0.43528803  0.05195713  0.82274177     0.35400
H324        H  0.43360250  0.17665024  0.95369636     0.28000
H325        H  0.32305891  0.02118571  0.91920544     0.40900
H326        H  0.32155256  0.22358075  0.83852565     0.31000
H327        H  0.31459455  0.22916259  0.88385967     0.38600
H328        H  0.44715257  0.06822752  0.87579696     0.30400
H329        H  0.35328680  0.10053961  0.80582444     0.30500
H330        H  0.43524113  0.21792980  0.82075875     0.30800
Zr331      Zr  0.40624175  0.70699719  0.85765313     2.17500
O332        O  0.43665248  0.74101068  0.83537778    -0.51600
O333        O  0.39648627  0.78223772  0.86513298    -0.74800
O334        O  0.39641230  0.71634717  0.81649399    -0.81600
O335        O  0.45135365  0.67043254  0.90315824    -0.83300
O336        O  0.36062467  0.68927192  0.81195955    -0.78900
O337        O  0.44551366  0.71198171  0.87139961    -0.90600
O338        O  0.37112490  0.78467202  0.89460748    -0.76500
O339        O  0.36633978  0.71437172  0.86459951    -0.86000
O340        O  0.40155840  0.70682365  0.89866182    -0.85700
O341        O  0.38998935  0.64420264  0.83997948    -0.72500
O342        O  0.42110494  0.64000160  0.87194975    -0.84600
Zr343      Zr  0.35692696  0.58515870  0.90104420     2.26400
Zr344      Zr  0.34984401  0.65251865  0.84694033     2.06300
Zr345      Zr  0.41482180  0.63899708  0.91267964     2.10000
Zr346      Zr  0.36171898  0.71297023  0.90550582     1.78800
O347        O  0.44392252  0.58471457  0.91984622    -0.93400
O348        O  0.32516938  0.74898158  0.89931423    -0.41200
O349        O  0.37473221  0.64554356  0.91961631    -0.77900
O350        O  0.34339032  0.65385163  0.88783593    -0.96600
O351        O  0.36320131  0.58430830  0.86040356    -0.89900
O352        O  0.39733685  0.57766742  0.89568623    -0.92700
C353        C  0.38372755  0.80268633  0.87946586     1.01100
C354        C  0.45817957  0.69636161  0.88748392     1.14000
C355        C  0.37856838  0.70796967  0.80416843     1.04800
O356        O  0.32152843  0.70600662  0.83595340    -0.94900
O357        O  0.31220041  0.62734631  0.85653393    -0.90600
O358        O  0.31641652  0.58624623  0.88871490    -0.83700
C359        C  0.30421753  0.60445111  0.87293748     1.11400
O360        O  0.43229040  0.58376749  0.82473709    -0.96800
Zr361      Zr  0.40368777  0.57826813  0.85524066     1.88900
O362        O  0.36427075  0.50980745  0.89144841    -0.73500
O363        O  0.33896113  0.60337555  0.81623921    -0.52700
O364        O  0.39082635  0.54481676  0.81953675    -0.97400
O365        O  0.44007554  0.54525014  0.86601422    -0.54600
O366        O  0.39305516  0.50658630  0.86545112    -0.74000
C367        C  0.37833373  0.48883165  0.87865959     0.98400
O368        O  0.33146068  0.54652926  0.92710813    -0.62800
O369        O  0.42716173  0.68260788  0.94522069    -0.57600
O370        O  0.36586427  0.57776269  0.94212741    -0.94300
O371        O  0.40199774  0.60290480  0.94742714    -0.92700
O372        O  0.37748435  0.74334904  0.94078532    -0.93100
O373        O  0.33467736  0.70593257  0.93722313    -0.91900
C374        C  0.38363287  0.58472078  0.95473397     1.17200
H375        H  0.40998536  0.73024017  0.90574442     0.33100
H376        H  0.32768475  0.65947635  0.89192232     0.44000
H377        H  0.40305009  0.55201159  0.90293752     0.37500
H378        H  0.39344726  0.64155581  0.82367600     0.34000
H379        H  0.32648974  0.77638827  0.90776358     0.25800
H380        H  0.32700278  0.61879871  0.80738521     0.31700
H381        H  0.39820258  0.51628074  0.81940501     0.37600
H382        H  0.36914484  0.77067214  0.94285402     0.32100
H383        H  0.41317543  0.68687084  0.95458022     0.31000
H384        H  0.45248331  0.59528187  0.93345565     0.32700
H385        H  0.43679081  0.52837058  0.88007828     0.31600
H386        H  0.33104132  0.67500977  0.93779048     0.35600
H387        H  0.31945504  0.56726201  0.93166812     0.28300
H388        H  0.42949144  0.76582179  0.82754566     0.32600
H389        H  0.43692532  0.55403014  0.82115354     0.35400
H390        H  0.43690373  0.66338983  0.95464904     0.28000
H391        H  0.32343315  0.52506780  0.91749632     0.40900
H392        H  0.31312312  0.69314440  0.82282569     0.31000
H393        H  0.32527109  0.75723922  0.88281862     0.38600
H394        H  0.44975125  0.56922019  0.87146264     0.30400
H395        H  0.35237218  0.60269904  0.80581151     0.30500
H396        H  0.44043237  0.72061054  0.82289543     0.30800
Zr397      Zr  0.40151876  0.23010579  0.65164977     2.17500
O398        O  0.42988554  0.19147684  0.67447723    -0.51600
O399        O  0.39064713  0.15553089  0.64336657    -0.74800
O400        O  0.39188790  0.22452521  0.69309343    -0.81600
O401        O  0.44616992  0.26013696  0.60621802    -0.83300
O402        O  0.35683689  0.25461188  0.69778399    -0.78900
O403        O  0.44164544  0.22406021  0.63991602    -0.90600
O404        O  0.36268722  0.15274004  0.61633465    -0.76500
O405        O  0.36128712  0.22566221  0.64525892    -0.86000
O406        O  0.39617433  0.22810359  0.61076733    -0.85700
O407        O  0.38674298  0.29511912  0.66835889    -0.72500
O408        O  0.41742156  0.29519800  0.63610032    -0.84600
Zr409      Zr  0.35383340  0.35295754  0.60644063     2.26400
Zr410      Zr  0.34627789  0.28993600  0.66201646     2.06300
Zr411      Zr  0.41048813  0.29398245  0.59543164     2.10000
Zr412      Zr  0.35609990  0.22485967  0.60429332     1.78800
O413        O  0.44164303  0.34263918  0.58584316    -0.93400
O414        O  0.31814592  0.19400701  0.60956117    -0.41200
O415        O  0.37018060  0.29035638  0.58876707    -0.77900
O416        O  0.33900069  0.28630421  0.62123782    -0.96600
O417        O  0.36079242  0.35591021  0.64690677    -0.89900
O418        O  0.39446017  0.35772642  0.61141063    -0.92700
C419        C  0.37647553  0.13483818  0.63043016     1.01100
C420        C  0.45386469  0.23706980  0.62286019     1.14000
C421        C  0.37460990  0.23517976  0.70567069     1.04800
O422        O  0.31524962  0.24157880  0.67237260    -0.94900
O423        O  0.30994458  0.32360659  0.65386715    -0.90600
O424        O  0.31334991  0.35469314  0.61855485    -0.83700
C425        C  0.30155985  0.34267240  0.63619663     1.11400
O426        O  0.42968936  0.35856231  0.68275448    -0.96800
Zr427      Zr  0.40134735  0.35910436  0.65176627     1.88900
O428        O  0.36195840  0.42826519  0.61533341    -0.73500
O429        O  0.33779628  0.34065978  0.69268863    -0.52700
O430        O  0.38903907  0.39395081  0.68724015    -0.97400
O431        O  0.43846266  0.38742173  0.63995293    -0.54600
O432        O  0.39147872  0.43061336  0.64062136    -0.74000
C433        C  0.37655501  0.44878973  0.62774887     0.98400
O434        O  0.32928079  0.39310558  0.58002283    -0.62800
O435        O  0.41997464  0.24555497  0.56395150    -0.57600
O436        O  0.36289639  0.35741163  0.56531403    -0.94300
O437        O  0.39893885  0.33141739  0.56049756    -0.92700
O438        O  0.37359270  0.19115168  0.57079861    -0.93100
O439        O  0.33070108  0.22907392  0.57095939    -0.91900
C440        C  0.38071697  0.34994210  0.55294067     1.17200
H441        H  0.40403313  0.20390873  0.60415835     0.33100
H442        H  0.32295585  0.28177070  0.61791490     0.44000
H443        H  0.40061806  0.38253357  0.60370334     0.37500
H444        H  0.39053843  0.29863487  0.68440236     0.34000
H445        H  0.31887294  0.16560141  0.60207731     0.25800
H446        H  0.32589257  0.32639396  0.70209952     0.31700
H447        H  0.37452096  0.40859483  0.68320716     0.37600
H448        H  0.36399690  0.16570540  0.56768676     0.32100
H449        H  0.40727281  0.24867034  0.55272206     0.31000
H450        H  0.44740851  0.33246856  0.57076412     0.32700
H451        H  0.43521972  0.40552413  0.62630641     0.31600
H452        H  0.33474372  0.25637414  0.56331289     0.35600
H453        H  0.31676634  0.37332100  0.57560365     0.28300
H454        H  0.42148607  0.16870614  0.68280496     0.32600
H455        H  0.43410287  0.38884851  0.68508428     0.35400
H456        H  0.43332256  0.25889055  0.55627267     0.28000
H457        H  0.32180882  0.41546341  0.58947087     0.40900
H458        H  0.32131537  0.21256869  0.66927850     0.31000
H459        H  0.31723166  0.18763006  0.62626677     0.38600
H460        H  0.44689221  0.36250258  0.63372737     0.30400
H461        H  0.35162150  0.34061068  0.70261997     0.30500
H462        H  0.43505041  0.21180355  0.68649250     0.30800
Zr463      Zr  0.40278484  0.72976203  0.65190540     2.17500
O464        O  0.43190075  0.69506675  0.67574708    -0.51600
O465        O  0.39305046  0.65518328  0.64370575    -0.74800
O466        O  0.39076305  0.72108504  0.69242805    -0.81600
O467        O  0.44837723  0.76180198  0.60772800    -0.83300
O468        O  0.35591318  0.75181778  0.69731213    -0.78900
O469        O  0.44249156  0.72110391  0.63977950    -0.90600
O470        O  0.36839157  0.65383296  0.61359566    -0.76500
O471        O  0.36264866  0.72588812  0.64508301    -0.86000
O472        O  0.39803076  0.72932098  0.61091472    -0.85700
O473        O  0.38790444  0.79390119  0.66936320    -0.72500
O474        O  0.41918715  0.79519451  0.63736503    -0.84600
Zr475      Zr  0.35601101  0.85454394  0.60771362     2.26400
Zr476      Zr  0.34752215  0.78980492  0.66211298     2.06300
Zr477      Zr  0.41269726  0.79574751  0.59664391     2.10000
Zr478      Zr  0.35802811  0.72614682  0.60416710     1.78800
O479        O  0.44362332  0.84501121  0.58721343    -0.93400
O480        O  0.32233802  0.68893736  0.61265369    -0.41200
O481        O  0.37249266  0.79232821  0.58966410    -0.77900
O482        O  0.34090986  0.78713980  0.62134083    -0.96600
O483        O  0.36261434  0.85607065  0.64827172    -0.89900
O484        O  0.39660963  0.85886607  0.61335112    -0.92700
C485        C  0.38066239  0.63516919  0.62889243     1.01100
C486        C  0.45522431  0.73622333  0.62366902     1.14000
C487        C  0.37336856  0.73142723  0.70495831     1.04800
O488        O  0.31573975  0.74413092  0.67354641    -0.94900
O489        O  0.31133682  0.82218652  0.65236981    -0.90600
O490        O  0.31479798  0.85446129  0.61743656    -0.83700
C491        C  0.30286847  0.84129107  0.63473416     1.11400
O492        O  0.43373789  0.85117313  0.68245154    -0.96800
Zr493      Zr  0.40321482  0.85830894  0.65390519     1.88900
O494        O  0.36418250  0.92804188  0.62067968    -0.73500
O495        O  0.34018083  0.84158641  0.69258448    -0.52700
O496        O  0.39266901  0.88760632  0.69135561    -0.97400
O497        O  0.43877521  0.89221017  0.64150366    -0.54600
O498        O  0.39242114  0.93110864  0.64745232    -0.74000
C499        C  0.37750078  0.94880567  0.63449663     0.98400
O500        O  0.33320612  0.89990057  0.58217745    -0.62800
O501        O  0.42245263  0.74884319  0.56458268    -0.57600
O502        O  0.36513964  0.86092690  0.56653564    -0.94300
O503        O  0.40071347  0.83294859  0.56184598    -0.92700
O504        O  0.37029179  0.69811806  0.56698524    -0.93100
O505        O  0.32883615  0.73457215  0.57440873    -0.91900
C506        C  0.38279147  0.85224866  0.55412781     1.17200
H507        H  0.40600932  0.70530544  0.60404122     0.33100
H508        H  0.32502555  0.78212365  0.61758075     0.44000
H509        H  0.40279204  0.88417938  0.60612585     0.37500
H510        H  0.39133134  0.79613055  0.68565153     0.34000
H511        H  0.32211662  0.66423254  0.60197384     0.25800
H512        H  0.32598867  0.83132409  0.70010007     0.31700
H513        H  0.37779497  0.90210898  0.68876631     0.37600
H514        H  0.38344113  0.67914253  0.57047502     0.32100
H515        H  0.40871276  0.74892265  0.55453444     0.31000
H516        H  0.45232918  0.83057564  0.57481846     0.32700
H517        H  0.43425441  0.91334630  0.62960559     0.31600
H518        H  0.32785610  0.76584526  0.57183259     0.35600
H519        H  0.32109243  0.88115314  0.57578691     0.28300
H520        H  0.42437135  0.66964244  0.68253915     0.32600
H521        H  0.43789497  0.88078266  0.68685105     0.35400
H522        H  0.43413500  0.76479900  0.55569856     0.28000
H523        H  0.32504373  0.92025903  0.59234103     0.40900
H524        H  0.31824092  0.71704608  0.66509175     0.31000
H525        H  0.32475564  0.67601670  0.62806732     0.38600
H526        H  0.44704993  0.86967042  0.63289884     0.30400
H527        H  0.35238473  0.83655061  0.70416643     0.30500
H528        H  0.43465965  0.71461419  0.68889868     0.30800
Zr529      Zr  0.90195951  0.97875100  0.64787807     2.17500
O530        O  0.93121984  0.94508287  0.67196207    -0.51600
O531        O  0.89327645  0.90393002  0.63962837    -0.74800
O532        O  0.88957789  0.96833920  0.68799444    -0.81600
O533        O  0.94710700  0.00544833  0.60073694    -0.83300
O534        O  0.85437498  0.99795304  0.69303852    -0.78900
O535        O  0.94167971  0.97301053  0.63541628    -0.90600
O536        O  0.86589019  0.90174478  0.61193270    -0.76500
O537        O  0.86178545  0.97448860  0.64144908    -0.86000
O538        O  0.89667131  0.97704452  0.60706476    -0.85700
O539        O  0.88691911  0.04260753  0.66545070    -0.72500
O540        O  0.91848228  0.04367429  0.63315921    -0.84600
Zr541      Zr  0.85553952  0.10279727  0.60338979     2.26400
Zr542      Zr  0.84649683  0.03829839  0.65826770     2.06300
Zr543      Zr  0.91178862  0.04282795  0.59242939     2.10000
Zr544      Zr  0.85657687  0.97405389  0.60070177     1.78800
O545        O  0.94326740  0.09215516  0.58528818    -0.93400
O546        O  0.81996597  0.94061917  0.60977644    -0.41200
O547        O  0.87138987  0.03975026  0.58557035    -0.77900
O548        O  0.83980019  0.03625268  0.61739238    -0.96600
O549        O  0.86177846  0.10445917  0.64400427    -0.89900
O550        O  0.89598799  0.10615405  0.60909975    -0.92700
C551        C  0.87957575  0.88358778  0.62620414     1.01100
C552        C  0.95414478  0.98349309  0.61803936     1.14000
C553        C  0.87187564  0.97716831  0.70035267     1.04800
O554        O  0.81500612  0.98959472  0.66656342    -0.94900
O555        O  0.81071589  0.07357835  0.65020938    -0.90600
O556        O  0.81505848  0.10806059  0.61597368    -0.83700
C557        C  0.80284269  0.09524265  0.63321586     1.11400
O558        O  0.93105430  0.10130562  0.68004785    -0.96800
Zr559      Zr  0.90229778  0.10687941  0.64961652     1.88900
O560        O  0.86485608  0.17725513  0.61358442    -0.73500
O561        O  0.83836276  0.08684855  0.69004836    -0.52700
O562        O  0.88925400  0.13915911  0.68552207    -0.97400
O563        O  0.93902189  0.13828938  0.63890915    -0.54600
O564        O  0.89405516  0.17976678  0.63945137    -0.74000
C565        C  0.87942977  0.19772317  0.62618036     0.98400
O566        O  0.83053378  0.13762490  0.57523548    -0.62800
O567        O  0.92013525  0.99615076  0.55988409    -0.57600
O568        O  0.86751572  0.11198292  0.56305927    -0.94300
O569        O  0.90278812  0.08281785  0.55787342    -0.92700
O570        O  0.87022512  0.94202751  0.56500202    -0.93100
O571        O  0.82843613  0.97891552  0.56971364    -0.91900
C572        C  0.88528954  0.10371690  0.55064189     1.17200
H573        H  0.90441414  0.95277433  0.60026794     0.33100
H574        H  0.82372815  0.03317586  0.61386406     0.44000
H575        H  0.90241891  0.13114715  0.60169469     0.37500
H576        H  0.89021091  0.04434762  0.68169250     0.34000
H577        H  0.82011016  0.91311426  0.60131522     0.25800
H578        H  0.82617001  0.07244001  0.69900679     0.31700
H579        H  0.87508982  0.15486229  0.68137130     0.37600
H580        H  0.86313810  0.91326088  0.56461508     0.32100
H581        H  0.90622021  0.99726904  0.55009777     0.31000
H582        H  0.95135511  0.08010524  0.57177826     0.32700
H583        H  0.93581835  0.15597935  0.62510340     0.31600
H584        H  0.82360285  0.00928877  0.56967056     0.35600
H585        H  0.81811481  0.11690449  0.57195696     0.28300
H586        H  0.92389522  0.91943814  0.67873976     0.32600
H587        H  0.93469220  0.13114791  0.68445471     0.35400
H588        H  0.93194374  0.01158081  0.55089959     0.28000
H589        H  0.82304464  0.16154176  0.58350102     0.40900
H590        H  0.80700910  0.00248691  0.67990366     0.31000
H591        H  0.82125947  0.93233537  0.62621748     0.38600
H592        H  0.94819309  0.11401447  0.63300481     0.30400
H593        H  0.85208250  0.08528938  0.70009400     0.30500
H594        H  0.93368692  0.96479265  0.68510194     0.30800
Zr595      Zr  0.90111176  0.47859838  0.64869419     2.17500
O596        O  0.92802933  0.43658430  0.67168240    -0.51600
O597        O  0.89075316  0.40410091  0.63957404    -0.74800
O598        O  0.89006419  0.47332526  0.68974870    -0.81600
O599        O  0.94662478  0.50900360  0.60431253    -0.83300
O600        O  0.85520855  0.50416422  0.69449991    -0.78900
O601        O  0.94185694  0.47673517  0.63912724    -0.90600
O602        O  0.86171083  0.40114561  0.61362684    -0.76500
O603        O  0.86090152  0.47551441  0.64262128    -0.86000
O604        O  0.89554197  0.47568703  0.60778787    -0.85700
O605        O  0.88709048  0.54426425  0.66529093    -0.72500
O606        O  0.91755067  0.54273687  0.63261874    -0.84600
Zr607      Zr  0.85475101  0.60224667  0.60298389     2.26400
Zr608      Zr  0.84667197  0.54071955  0.65878779     2.06300
Zr609      Zr  0.91071342  0.54073456  0.59202649     2.10000
Zr610      Zr  0.85525585  0.47370976  0.60183069     1.78800
O611        O  0.94243426  0.58706179  0.58111273    -0.93400
O612        O  0.81772143  0.44448671  0.61127743    -0.41200
O613        O  0.87024333  0.53837014  0.58570068    -0.77900
O614        O  0.83908360  0.53647629  0.61814456    -0.96600
O615        O  0.86194390  0.60575421  0.64343767    -0.89900
O616        O  0.89541887  0.60534198  0.60788591    -0.92700
C617        C  0.87608759  0.38340385  0.62722125     1.01100
C618        C  0.95425731  0.48851512  0.62195455     1.14000
C619        C  0.87274771  0.48414372  0.70226799     1.04800
O620        O  0.81517164  0.49405429  0.66990632    -0.94900
O621        O  0.81145325  0.57686573  0.64975461    -0.90600
O622        O  0.81385626  0.60580281  0.61399442    -0.83700
C623        C  0.80242118  0.59489416  0.63208635     1.11400
O624        O  0.93282985  0.60068115  0.67708205    -0.96800
Zr625      Zr  0.90250142  0.60738923  0.64825886     1.88900
O626        O  0.86228597  0.67714514  0.61327308    -0.73500
O627        O  0.83974144  0.59154209  0.68980633    -0.52700
O628        O  0.89248987  0.64129525  0.68471037    -0.97400
O629        O  0.93834284  0.63918485  0.63509920    -0.54600
O630        O  0.89145507  0.67937680  0.63905475    -0.74000
C631        C  0.87646668  0.69753653  0.62623863     0.98400
O632        O  0.83153222  0.64215937  0.57530173    -0.62800
O633        O  0.91850752  0.49079268  0.56071710    -0.57600
O634        O  0.86564126  0.60808441  0.56229314    -0.94300
O635        O  0.90091701  0.57904325  0.55686376    -0.92700
O636        O  0.86891663  0.43663262  0.56758580    -0.93100
O637        O  0.82820554  0.48019333  0.56996297    -0.91900
C638        C  0.88314954  0.59935017  0.54965776     1.17200
H639        H  0.90301854  0.45094367  0.60124174     0.33100
H640        H  0.82301409  0.53251643  0.61490717     0.44000
H641        H  0.90175919  0.63004097  0.60011822     0.37500
H642        H  0.89076584  0.54747032  0.68135712     0.34000
H643        H  0.81618937  0.41863156  0.60155435     0.25800
H644        H  0.82844822  0.57722926  0.69992978     0.31700
H645        H  0.90011181  0.66958269  0.68434232     0.37600
H646        H  0.87378196  0.45973932  0.55698077     0.32100
H647        H  0.92795357  0.50719070  0.54963941     0.31000
H648        H  0.94954632  0.57273119  0.56769484     0.32700
H649        H  0.93390347  0.66045678  0.62323816     0.31600
H650        H  0.82435285  0.51103553  0.56939724     0.35600
H651        H  0.81975102  0.62180276  0.56977926     0.28300
H652        H  0.91896774  0.41282001  0.67833121     0.32600
H653        H  0.93831831  0.63014722  0.68003837     0.35400
H654        H  0.92918018  0.46937560  0.56731135     0.28000
H655        H  0.82302234  0.66368848  0.58440251     0.40900
H656        H  0.80588235  0.49069722  0.65571132     0.31000
H657        H  0.81938586  0.43327747  0.62717278     0.38600
H658        H  0.94606386  0.61612457  0.62637546     0.30400
H659        H  0.85411862  0.59175530  0.69890381     0.30500
H660        H  0.93216421  0.45483108  0.68501376     0.30800
Zr661      Zr  0.90673765  0.45457643  0.85406838     2.17500
O662        O  0.93808601  0.48359376  0.83114002    -0.51600
O663        O  0.89833522  0.52989533  0.86273230    -0.74800
O664        O  0.89543810  0.46907837  0.81380851    -0.81600
O665        O  0.95302003  0.41055886  0.89589650    -0.83300
O666        O  0.85894789  0.44500752  0.81017280    -0.78900
O667        O  0.94614570  0.45922531  0.86744382    -0.90600
O668        O  0.87383389  0.53186596  0.89287954    -0.76500
O669        O  0.86752359  0.46529681  0.86334314    -0.86000
O670        O  0.90421913  0.45054312  0.89515256    -0.85700
O671        O  0.88762988  0.39551316  0.83568090    -0.72500
O672        O  0.92016577  0.38450529  0.86521508    -0.84600
Zr673      Zr  0.85659037  0.33270216  0.89676749     2.26400
Zr674      Zr  0.84814671  0.40703766  0.84508905     2.06300
Zr675      Zr  0.91636026  0.38011245  0.90625461     2.10000
Zr676      Zr  0.86499065  0.45989594  0.90428288     1.78800
O677        O  0.94438703  0.32285009  0.91031918    -0.93400
O678        O  0.82782933  0.49520465  0.90152840    -0.41200
O679        O  0.87694055  0.38989818  0.91544327    -0.77900
O680        O  0.84407431  0.40377866  0.88633712    -0.96600
O681        O  0.86002943  0.33616815  0.85588755    -0.89900
O682        O  0.89630545  0.32210051  0.88851796    -0.92700
C683        C  0.88600043  0.55024903  0.87747343     1.01100
C684        C  0.95933242  0.43999603  0.88187157     1.14000
C685        C  0.87707583  0.46265489  0.80192124     1.04800
O686        O  0.82028121  0.46378043  0.83850511    -0.94900
O687        O  0.81053266  0.38289326  0.85604080    -0.90600
O688        O  0.81558251  0.33714109  0.88625205    -0.83700
C689        C  0.80295566  0.35776708  0.87170465     1.11400
O690        O  0.92560084  0.32966244  0.81473725    -0.96800
Zr691      Zr  0.89973091  0.32655181  0.84766888     1.88900
O692        O  0.86308020  0.25799048  0.88457491    -0.73500
O693        O  0.83406510  0.36466426  0.81278729    -0.52700
O694        O  0.88017025  0.30435399  0.81245686    -0.97400
O695        O  0.93566100  0.28803079  0.85331151    -0.54600
O696        O  0.88820643  0.25414092  0.85490666    -0.74000
C697        C  0.87482717  0.23683147  0.86957421     0.98400
O698        O  0.83213636  0.29098664  0.92243807    -0.62800
O699        O  0.93145074  0.42000618  0.93903800    -0.57600
O700        O  0.86678551  0.32593329  0.93782413    -0.94300
O701        O  0.90418837  0.34474540  0.94163273    -0.92700
O702        O  0.88428367  0.48729374  0.93853687    -0.93100
O703        O  0.84192028  0.45557780  0.93914119    -0.91900
C704        C  0.88523932  0.33032804  0.94985588     1.17200
H705        H  0.91353855  0.47223863  0.90234435     0.33100
H706        H  0.82863839  0.40972085  0.89148277     0.44000
H707        H  0.90186951  0.29523715  0.89452852     0.37500
H708        H  0.89025228  0.39408893  0.81922058     0.34000
H709        H  0.83006717  0.52347786  0.90888458     0.25800
H710        H  0.82869356  0.33750934  0.81971974     0.31700
H711        H  0.88411668  0.27378306  0.81045785     0.37600
H712        H  0.88422098  0.51879207  0.93674516     0.32100
H713        H  0.91810102  0.42491086  0.94920858     0.31000
H714        H  0.95413000  0.33170585  0.92347533     0.32700
H715        H  0.93285188  0.26862676  0.86651293     0.31600
H716        H  0.83425412  0.42739181  0.93809314     0.35600
H717        H  0.82034804  0.31115019  0.92814982     0.28300
H718        H  0.93208265  0.51006376  0.82392862     0.32600
H719        H  0.92612664  0.30017076  0.80853337     0.35400
H720        H  0.94113584  0.39927697  0.94755250     0.28000
H721        H  0.82371366  0.27078775  0.91237020     0.40900
H722        H  0.82920677  0.49067233  0.83926360     0.31000
H723        H  0.82592906  0.50170149  0.88491698     0.38600
H724        H  0.94643675  0.30972853  0.85941372     0.30400
H725        H  0.81987741  0.37940855  0.80777242     0.30500
H726        H  0.94024531  0.46319052  0.81828949     0.30800
Zr727      Zr  0.90226040  0.95602653  0.85315983     2.17500
O728        O  0.93084531  0.99442847  0.83054968    -0.51600
O729        O  0.89131526  0.03061489  0.86139536    -0.74800
O730        O  0.89174888  0.96241479  0.81198580    -0.81600
O731        O  0.94890709  0.92185974  0.89737627    -0.83300
O732        O  0.85742119  0.92960023  0.80748904    -0.78900
O733        O  0.94225211  0.96171272  0.86513630    -0.90600
O734        O  0.86555382  0.03335663  0.89053378    -0.76500
O735        O  0.86202579  0.95874819  0.85927933    -0.86000
O736        O  0.89701126  0.95869351  0.89399376    -0.85700
O737        O  0.88837141  0.89008836  0.83664738    -0.72500
O738        O  0.91890626  0.89180570  0.86892117    -0.84600
Zr739      Zr  0.85666760  0.83188009  0.89901395     2.26400
Zr740      Zr  0.84794407  0.89327530  0.84311199     2.06300
Zr741      Zr  0.91243234  0.89367018  0.90953521     2.10000
Zr742      Zr  0.85684169  0.96046608  0.90014319     1.78800
O743        O  0.94365958  0.84684940  0.92142586    -0.93400
O744        O  0.82030960  0.99338450  0.88992663    -0.41200
O745        O  0.87207216  0.89586612  0.91621324    -0.77900
O746        O  0.84085365  0.89760997  0.88377616    -0.96600
O747        O  0.86336621  0.82811741  0.85846081    -0.89900
O748        O  0.89720466  0.82905303  0.89387826    -0.92700
C749        C  0.87837109  0.05124871  0.87554589     1.01100
C750        C  0.95536804  0.94658492  0.88101778     1.14000
C751        C  0.87453539  0.95070560  0.79953139     1.04800
O752        O  0.81627841  0.94030561  0.83270733    -0.94900
O753        O  0.81261871  0.85752426  0.85258695    -0.90600
O754        O  0.81571511  0.82883967  0.88839153    -0.83700
C755        C  0.80391343  0.84002347  0.87056077     1.11400
O756        O  0.93422157  0.83168815  0.82472457    -0.96800
Zr757      Zr  0.90393815  0.82689743  0.85353201     1.88900
O758        O  0.86595008  0.75677096  0.89055293    -0.73500
O759        O  0.83938421  0.84366550  0.81187542    -0.52700
O760        O  0.89362269  0.79317822  0.81707571    -0.97400
O761        O  0.94034879  0.79718137  0.86674429    -0.54600
O762        O  0.89430132  0.75481661  0.86397704    -0.74000
C763        C  0.88018076  0.73649327  0.87762214     0.98400
O764        O  0.83351902  0.79058719  0.92607342    -0.62800
O765        O  0.92070291  0.94640836  0.93932297    -0.57600
O766        O  0.86729184  0.82839708  0.93978036    -0.94300
O767        O  0.90280856  0.85649147  0.94481531    -0.92700
O768        O  0.86967898  0.99276669  0.93610505    -0.93100
O769        O  0.82789488  0.95312788  0.93010061    -0.91900
C770        C  0.88498090  0.83691537  0.95223708     1.17200
H771        H  0.90456033  0.98356631  0.90059928     0.33100
H772        H  0.82490582  0.90181711  0.88707339     0.44000
H773        H  0.90373978  0.80459034  0.90172541     0.37500
H774        H  0.89207359  0.88709171  0.82044314     0.34000
H775        H  0.81927235  0.01918727  0.89976944     0.25800
H776        H  0.82768577  0.85852630  0.80240463     0.31700
H777        H  0.87926794  0.77742726  0.82032042     0.37600
H778        H  0.85952641  0.01779998  0.93831675     0.32100
H779        H  0.90861734  0.94218612  0.95106492     0.31000
H780        H  0.95117951  0.86201590  0.93437081     0.32700
H781        H  0.93639071  0.77679068  0.87918646     0.31600
H782        H  0.82508756  0.92195146  0.93119750     0.35600
H783        H  0.82179306  0.81064538  0.93198702     0.28300
H784        H  0.92249678  0.01800549  0.82280211     0.32600
H785        H  0.93871924  0.80178633  0.82135124     0.35400
H786        H  0.93490821  0.93599153  0.94682797     0.28000
H787        H  0.82494460  0.76950341  0.91669923     0.40900
H788        H  0.80765605  0.94443441  0.84722574     0.31000
H789        H  0.82259176  0.00474767  0.87415029     0.38600
H790        H  0.94807161  0.82113197  0.87476692     0.30400
H791        H  0.85331679  0.84354842  0.80215860     0.30500
H792        H  0.93542146  0.97463696  0.81806494     0.30800
Zr793      Zr  0.10232274  0.98681660  0.85614096     2.17500
O794        O  0.07196572  0.95146815  0.83433093    -0.51600
O795        O  0.11218232  0.91191075  0.86423094    -0.74800
O796        O  0.11225766  0.97571151  0.81540959    -0.81600
O797        O  0.05592808  0.02549578  0.89920898    -0.83300
O798        O  0.14759556  0.00435516  0.81046539    -0.78900
O799        O  0.06267250  0.98235687  0.86835489    -0.90600
O800        O  0.13770034  0.90989329  0.89360883    -0.76500
O801        O  0.14244820  0.98133080  0.86259326    -0.86000
O802        O  0.10716848  0.98678343  0.89709853    -0.85700
O803        O  0.11778874  0.04997732  0.83806710    -0.72500
O804        O  0.08675467  0.05317799  0.87013728    -0.84600
Zr805      Zr  0.15024729  0.10958711  0.89956902     2.26400
Zr806      Zr  0.15815758  0.04407890  0.84488261     2.06300
Zr807      Zr  0.09274644  0.05404579  0.91090702     2.10000
Zr808      Zr  0.14734866  0.98217059  0.90345554     1.78800
O809        O  0.06313181  0.10648903  0.91960917    -0.93400
O810        O  0.18334599  0.94618322  0.89461881    -0.41200
O811        O  0.13304506  0.04851921  0.91791120    -0.77900
O812        O  0.16504790  0.04221294  0.88575244    -0.96600
O813        O  0.14391815  0.11101030  0.85892696    -0.89900
O814        O  0.10983335  0.11593131  0.89390751    -0.92700
C815        C  0.12515370  0.89157233  0.87847650     1.01100
C816        C  0.04948848  0.99920825  0.88351528     1.14000
C817        C  0.12991130  0.98413704  0.80295966     1.04800
O818        O  0.18913985  0.99508083  0.83530816    -0.94900
O819        O  0.19452257  0.07813894  0.85306592    -0.90600
O820        O  0.19091302  0.11035550  0.88801818    -0.83700
C821        C  0.20285387  0.09778852  0.87058720     1.11400
O822        O  0.07409594  0.11138251  0.82352968    -0.96800
Zr823      Zr  0.10350103  0.11540003  0.85340957     1.88900
O824        O  0.14310619  0.18439497  0.88933531    -0.73500
O825        O  0.16656844  0.09167597  0.81271261    -0.52700
O826        O  0.11519627  0.14638462  0.81669213    -0.97400
O827        O  0.06741656  0.14832720  0.86503091    -0.54600
O828        O  0.11502352  0.18710130  0.86243577    -0.74000
C829        C  0.12959091  0.20503837  0.87579290     0.98400
O830        O  0.17439657  0.15048581  0.92597527    -0.62800
O831        O  0.08151607  0.00658984  0.94226692    -0.57600
O832        O  0.14001284  0.11461651  0.94049009    -0.94300
O833        O  0.10346407  0.09165736  0.94599032    -0.92700
O834        O  0.13540994  0.95157705  0.94018738    -0.93100
O835        O  0.17617909  0.99044580  0.93356480    -0.91900
C836        C  0.12221464  0.10853607  0.95319611     1.17200
H837        H  0.09906034  0.96305265  0.90401773     0.33100
H838        H  0.18098900  0.03754310  0.88924236     0.44000
H839        H  0.10394651  0.14163474  0.90108949     0.37500
H840        H  0.11421428  0.05184967  0.82181877     0.34000
H841        H  0.18378469  0.92109766  0.90506122     0.25800
H842        H  0.17876802  0.07683017  0.80397386     0.31700
H843        H  0.13013324  0.16020880  0.81987391     0.37600
H844        H  0.12102705  0.93598578  0.93683159     0.32100
H845        H  0.09496169  0.00584263  0.95271014     0.31000
H846        H  0.05340299  0.09257730  0.93140360     0.32700
H847        H  0.07134714  0.16744478  0.87805192     0.31600
H848        H  0.17825586  0.02176377  0.93504875     0.35600
H849        H  0.18641869  0.13037402  0.93132247     0.28300
H850        H  0.07912834  0.92598256  0.82723365     0.32600
H851        H  0.06997066  0.14139473  0.81991133     0.35400
H852        H  0.06975412  0.02280753  0.95089910     0.28000
H853        H  0.18257672  0.17165203  0.91631809     0.40900
H854        H  0.19667956  0.98880206  0.85024891     0.31000
H855        H  0.18103694  0.93378301  0.87907893     0.38600
H856        H  0.05851216  0.12482785  0.87213588     0.30400
H857        H  0.15290067  0.09001894  0.80260324     0.30500
H858        H  0.06831694  0.97086533  0.82131621     0.30800
Zr859      Zr  0.10546449  0.48762906  0.85455252     2.17500
O860        O  0.07524369  0.45904974  0.82982484    -0.51600
O861        O  0.11383390  0.41215480  0.86173300    -0.74800
O862        O  0.11795604  0.47724151  0.81436762    -0.81600
O863        O  0.05970753  0.52183108  0.89960841    -0.83300
O864        O  0.15286632  0.50756697  0.80932302    -0.78900
O865        O  0.06598908  0.48114363  0.86764574    -0.90600
O866        O  0.14103835  0.40904631  0.88948307    -0.76500
O867        O  0.14558472  0.48194457  0.86097546    -0.86000
O868        O  0.11036423  0.48503719  0.89549304    -0.85700
O869        O  0.12090309  0.55149066  0.83744831    -0.72500
O870        O  0.09000663  0.55285443  0.86998894    -0.84600
Zr871      Zr  0.15336554  0.60898812  0.89986122     2.26400
Zr872      Zr  0.16121600  0.54595267  0.84451005     2.06300
Zr873      Zr  0.09641598  0.55139436  0.91070024     2.10000
Zr874      Zr  0.15035889  0.48023527  0.90182463     1.78800
O875        O  0.06590709  0.60095015  0.92099319    -0.93400
O876        O  0.18723502  0.44698510  0.89363593    -0.41200
O877        O  0.13667953  0.54632029  0.91733244    -0.77900
O878        O  0.16767739  0.54164373  0.88543919    -0.96600
O879        O  0.14698134  0.61236002  0.85922560    -0.89900
O880        O  0.11286628  0.61453899  0.89448202    -0.92700
C881        C  0.12749929  0.39129475  0.87501102     1.01100
C882        C  0.05308077  0.49638404  0.88359579     1.14000
C883        C  0.13549501  0.48672661  0.80186098     1.04800
O884        O  0.19275000  0.50449052  0.82867595    -0.94900
O885        O  0.19863088  0.57090741  0.85536333    -0.90600
O886        O  0.19393530  0.61017375  0.88806755    -0.83700
C887        C  0.20634504  0.59311236  0.87217909     1.11400
O888        O  0.07637022  0.61131085  0.82472350    -0.96800
Zr889      Zr  0.10640196  0.61586635  0.85395622     1.88900
O890        O  0.14527874  0.68458071  0.89071554    -0.73500
O891        O  0.16668023  0.60233744  0.81604228    -0.52700
O892        O  0.11811265  0.65154074  0.81848882    -0.97400
O893        O  0.07025675  0.64788492  0.86615831    -0.54600
O894        O  0.11696541  0.68726459  0.86404129    -0.74000
C895        C  0.13129143  0.70528080  0.87757995     0.98400
O896        O  0.17819110  0.64725281  0.92678594    -0.62800
O897        O  0.08711703  0.50207344  0.94188239    -0.57600
O898        O  0.14418838  0.61432579  0.94097472    -0.94300
O899        O  0.10835202  0.58755494  0.94576793    -0.92700
O900        O  0.13592870  0.44615568  0.93667279    -0.93100
O901        O  0.17794904  0.48397751  0.93334349    -0.91900
C902        C  0.12648840  0.60615380  0.95340207     1.17200
H903        H  0.10233513  0.46096447  0.90210078     0.33100
H904        H  0.18344201  0.53629744  0.88960369     0.44000
H905        H  0.10682178  0.63958660  0.90204488     0.37500
H906        H  0.11748523  0.55364762  0.82111812     0.34000
H907        H  0.18582650  0.41721515  0.89931082     0.25800
H908        H  0.18231693  0.59742408  0.80999597     0.31700
H909        H  0.11754393  0.62918975  0.80641657     0.37600
H910        H  0.14472729  0.41915641  0.93796909     0.32100
H911        H  0.10084166  0.50203526  0.95195281     0.31000
H912        H  0.05773686  0.58683815  0.93387029     0.32700
H913        H  0.07413744  0.66625432  0.87950204     0.31600
H914        H  0.18273110  0.51435762  0.93378206     0.35600
H915        H  0.19051898  0.62692778  0.93107571     0.28300
H916        H  0.08159770  0.43261389  0.82293969     0.32600
H917        H  0.07265419  0.64127541  0.82058302     0.35400
H918        H  0.07525039  0.51705327  0.95100499     0.28000
H919        H  0.18587363  0.66980482  0.91762462     0.40900
H920        H  0.19047451  0.47525846  0.83485442     0.31000
H921        H  0.18766462  0.44429128  0.87662952     0.38600
H922        H  0.06139004  0.62393088  0.87286647     0.30400
H923        H  0.15644117  0.59446965  0.80308965     0.30500
H924        H  0.07378345  0.47946434  0.81682596     0.30800
Zr925      Zr  0.10319236  0.45385734  0.64979623     2.17500
O926        O  0.07403822  0.49070672  0.67243704    -0.51600
O927        O  0.11286836  0.52843567  0.64162177    -0.74800
O928        O  0.11379977  0.46195381  0.69081496    -0.81600
O929        O  0.05848923  0.42634093  0.60234728    -0.83300
O930        O  0.14824600  0.42947135  0.69593951    -0.78900
O931        O  0.06342759  0.45910346  0.63695236    -0.90600
O932        O  0.13978765  0.53005449  0.61366311    -0.76500
O933        O  0.14362510  0.45620093  0.64433653    -0.86000
O934        O  0.10943785  0.45683422  0.60908517    -0.85700
O935        O  0.11697580  0.38854637  0.66697924    -0.72500
O936        O  0.08659214  0.39012064  0.63373563    -0.84600
Zr937      Zr  0.14961068  0.32892346  0.60521173     2.26400
Zr938      Zr  0.15755486  0.39093005  0.66093225     2.06300
Zr939      Zr  0.09437848  0.39205727  0.59327668     2.10000
Zr940      Zr  0.14964165  0.45782120  0.60363051     1.78800
O941        O  0.06296167  0.34570437  0.58147959    -0.93400
O942        O  0.18556843  0.49350891  0.61310080    -0.41200
O943        O  0.13481402  0.39315359  0.58754568    -0.77900
O944        O  0.16524031  0.39486210  0.62037256    -0.96600
O945        O  0.14206064  0.32583236  0.64565745    -0.89900
O946        O  0.10889665  0.32727198  0.60969364    -0.92700
C947        C  0.12629618  0.54856732  0.62784992     1.01100
C948        C  0.05110608  0.44811130  0.61950104     1.14000
C949        C  0.13111905  0.45120035  0.70338842     1.04800
O950        O  0.18945291  0.43631495  0.67253390    -0.94900
O951        O  0.19337059  0.35644862  0.65154590    -0.90600
O952        O  0.19061446  0.32561054  0.61628518    -0.83700
C953        C  0.20230108  0.33783792  0.63400754     1.11400
O954        O  0.07056049  0.33099034  0.67827717    -0.96800
Zr955      Zr  0.10132189  0.32565938  0.65002373     1.88900
O956        O  0.13935993  0.25478020  0.61574366    -0.73500
O957        O  0.16474589  0.34021509  0.69202857    -0.52700
O958        O  0.11177284  0.29544926  0.68741274    -0.97400
O959        O  0.06511843  0.29552904  0.63662093    -0.54600
O960        O  0.10986311  0.25273411  0.64107114    -0.74000
C961        C  0.12464127  0.23449906  0.62824975     0.98400
O962        O  0.17284291  0.28642472  0.57882009    -0.62800
O963        O  0.08731078  0.44350536  0.56244386    -0.57600
O964        O  0.14056170  0.32410327  0.56384181    -0.94300
O965        O  0.10592903  0.35565784  0.55844250    -0.92700
O966        O  0.13766807  0.48583558  0.56626832    -0.93100
O967        O  0.17992164  0.45158446  0.57497650    -0.91900
C968        C  0.12335985  0.33467316  0.55110431     1.17200
H969        H  0.10208487  0.48152440  0.60226487     0.33100
H970        H  0.18118961  0.39896097  0.61718691     0.44000
H971        H  0.10235438  0.30276210  0.60186394     0.37500
H972        H  0.11318789  0.38615001  0.68303594     0.34000
H973        H  0.18537613  0.52031470  0.60397843     0.25800
H974        H  0.17659912  0.35413947  0.70168779     0.31700
H975        H  0.11100388  0.26403035  0.68544605     0.37600
H976        H  0.13264224  0.51556002  0.56927321     0.32100
H977        H  0.10002875  0.43932604  0.55140096     0.31000
H978        H  0.05672791  0.35920144  0.56733810     0.32700
H979        H  0.06922179  0.27549041  0.62408387     0.31600
H980        H  0.18222954  0.42039088  0.57311104     0.35600
H981        H  0.18506747  0.30579453  0.57328959     0.28300
H982        H  0.08199318  0.51443780  0.68041891     0.32600
H983        H  0.06640938  0.30111515  0.68214717     0.35400
H984        H  0.07361144  0.43248011  0.55428948     0.28000
H985        H  0.18077908  0.26479216  0.58844683     0.40900
H986        H  0.19680887  0.44492191  0.65787420     0.31000
H987        H  0.18369155  0.50303950  0.62926970     0.38600
H988        H  0.05729143  0.31949800  0.62867274     0.30400
H989        H  0.15070318  0.34103803  0.70156887     0.30500
H990        H  0.06964613  0.47039597  0.68477414     0.30800
Zr991      Zr  0.10386669  0.95278939  0.65101900     2.17500
O992        O  0.07570536  0.98908616  0.67504240    -0.51600
O993        O  0.11345264  0.02776027  0.64229248    -0.74800
O994        O  0.11578912  0.96054100  0.69171250    -0.81600
O995        O  0.05895282  0.92197757  0.60574397    -0.83300
O996        O  0.15062028  0.92984379  0.69704927    -0.78900
O997        O  0.06325825  0.95575145  0.64013821    -0.90600
O998        O  0.14165186  0.03111929  0.61556253    -0.76500
O999        O  0.14408931  0.95690599  0.64520643    -0.86000
O1000       O  0.10965582  0.95608934  0.61020126    -0.85700
O1001       O  0.11855468  0.88783933  0.66795456    -0.72500
O1002       O  0.08803520  0.88806020  0.63513143    -0.84600
Zr1003     Zr  0.15171743  0.83080813  0.60582555     2.26400
Zr1004     Zr  0.15896535  0.89242644  0.66175375     2.06300
Zr1005     Zr  0.09513301  0.89047391  0.59463498     2.10000
Zr1006     Zr  0.14994433  0.95900115  0.60448234     1.78800
O1007       O  0.06358585  0.84365491  0.58369218    -0.93400
O1008       O  0.18600535  0.99430221  0.61404707    -0.41200
O1009       O  0.13559889  0.89399069  0.58835046    -0.77900
O1010       O  0.16666067  0.89682385  0.62112471    -0.96600
O1011       O  0.14449125  0.82687555  0.64624311    -0.89900
O1012       O  0.11110676  0.82654438  0.61057064    -0.92700
C1013       C  0.12762506  0.04864837  0.62949916     1.01100
C1014       C  0.05103957  0.94327978  0.62289283     1.14000
C1015       C  0.13320606  0.95059125  0.70437684     1.04800
O1016       O  0.19055702  0.93835463  0.67355668    -0.94900
O1017       O  0.19522752  0.85979904  0.65414136    -0.90600
O1018       O  0.19206508  0.82707634  0.61936681    -0.83700
C1019       C  0.20379825  0.83973491  0.63704193     1.11400
O1020       O  0.07476289  0.82780106  0.68082584    -0.96800
Zr1021     Zr  0.10392922  0.82402977  0.65082652     1.88900
O1022       O  0.14373786  0.75548020  0.61424244    -0.73500
O1023       O  0.16492234  0.83976773  0.69217446    -0.52700
O1024       O  0.11480368  0.78741726  0.68633550    -0.97400
O1025       O  0.06744221  0.79395642  0.63814544    -0.54600
O1026       O  0.11422154  0.75276874  0.63945356    -0.74000
C1027       C  0.12914598  0.73483016  0.62653830     0.98400
O1028       O  0.17736911  0.79596914  0.57844174    -0.62800
O1029       O  0.08767593  0.94065973  0.56331491    -0.57600
O1030       O  0.14045102  0.82466848  0.56506430    -0.94300
O1031       O  0.10444542  0.85094674  0.56003790    -0.92700
O1032       O  0.13596259  0.99100780  0.56880333    -0.93100
O1033       O  0.17829046  0.95436071  0.57381600    -0.91900
C1034       C  0.12248954  0.83202574  0.55265202     1.17200
H1035       H  0.10200672  0.98034743  0.60354354     0.33100
H1036       H  0.18286906  0.90068284  0.61795281     0.44000
H1037       H  0.10493372  0.80180172  0.60265886     0.37500
H1038       H  0.11490062  0.88510280  0.68415858     0.34000
H1039       H  0.19746747  0.97112137  0.61565352     0.25800
H1040       H  0.17781998  0.85127397  0.70139819     0.31700
H1041       H  0.12979332  0.77399171  0.68294610     0.37600
H1042       H  0.14300168  0.01981239  0.56835919     0.32100
H1043       H  0.10051869  0.93649619  0.55241281     0.31000
H1044       H  0.05509012  0.85966991  0.57166133     0.32700
H1045       H  0.07089765  0.77824797  0.62374911     0.31600
H1046       H  0.17996639  0.92331037  0.57088902     0.35600
H1047       H  0.18966398  0.81696596  0.57522633     0.28300
H1048       H  0.08373255  0.01386003  0.68197551     0.32600
H1049       H  0.06976377  0.79792566  0.68347843     0.35400
H1050       H  0.07415486  0.92879695  0.55520209     0.28000
H1051       H  0.18494787  0.77255616  0.58708562     0.40900
H1052       H  0.18541176  0.96775208  0.66983488     0.31000
H1053       H  0.18388059  0.00503165  0.62995766     0.38600
H1054       H  0.05826460  0.81890955  0.63306255     0.30400
H1055       H  0.15140403  0.84265123  0.70234611     0.30500
H1056       H  0.07254913  0.96945820  0.68807855     0.30800
Zr1057     Zr  0.35568372  0.07962693  0.10844648     2.17500
O1058       O  0.32681770  0.03834972  0.08761258    -0.51600
O1059       O  0.36482763  0.00465079  0.11688438    -0.74800
O1060       O  0.36458264  0.07225167  0.06732508    -0.81600
O1061       O  0.31101256  0.12188560  0.15245400    -0.83300
O1062       O  0.39961642  0.10197257  0.06166635    -0.78900
O1063       O  0.31494309  0.08423581  0.11920453    -0.90600
O1064       O  0.39485343  0.00247933  0.14162550    -0.76500
O1065       O  0.39644241  0.07745394  0.11200732    -0.86000
O1066       O  0.36391865  0.07460714  0.14878736    -0.85700
O1067       O  0.36929731  0.14529973  0.09110200    -0.72500
O1068       O  0.34069595  0.14323668  0.12546853    -0.84600
Zr1069     Zr  0.40347485  0.20366637  0.15211323     2.26400
Zr1070     Zr  0.41016160  0.14292390  0.09560772     2.06300
Zr1071     Zr  0.34929237  0.13907808  0.16549697     2.10000
Zr1072     Zr  0.40463269  0.07467103  0.15223846     1.78800
O1073       O  0.31911185  0.17754062  0.18558874    -0.93400
O1074       O  0.44033196  0.04218868  0.13925767    -0.41200
O1075       O  0.38999937  0.13847923  0.16944392    -0.77900
O1076       O  0.41954402  0.13920063  0.13590065    -0.96600
O1077       O  0.39483534  0.20712599  0.11196859    -0.89900
O1078       O  0.36277795  0.20503044  0.14929593    -0.92700
C1079       C  0.37984982  0.98424806  0.12886018     1.01100
C1080       C  0.30270643  0.10155449  0.13518187     1.14000
C1081       C  0.38185969  0.08152113  0.05455410     1.04800
O1082       O  0.44262332  0.09906038  0.08393931    -0.94900
O1083       O  0.44558776  0.18192596  0.10237934    -0.90600
O1084       O  0.44148714  0.21927964  0.13576376    -0.83700
C1085       C  0.45317881  0.20718781  0.11811165     1.11400
O1086       O  0.32185993  0.20151100  0.08261012    -0.96800
Zr1087     Zr  0.35413462  0.20792020  0.10914182     1.88900
O1088       O  0.39270103  0.27806673  0.14381198    -0.73500
O1089       O  0.41407812  0.19184971  0.06313692    -0.52700
O1090       O  0.36015631  0.24315594  0.07215900    -0.97400
O1091       O  0.31944858  0.23604284  0.12685026    -0.54600
O1092       O  0.36427564  0.28052262  0.11716522    -0.74000
C1093       C  0.37856982  0.29850990  0.13069513     0.98400
O1094       O  0.43076509  0.23167137  0.18026614    -0.62800
O1095       O  0.34363441  0.08058150  0.19275899    -0.57600
O1096       O  0.39405630  0.21101434  0.19323490    -0.94300
O1097       O  0.36099672  0.17523506  0.20019471    -0.92700
O1098       O  0.39482500  0.04438034  0.18968251    -0.93100
O1099       O  0.43563923  0.07716697  0.18039952    -0.91900
C1100       C  0.37782550  0.19849025  0.20670982     1.17200
H1101       H  0.35705784  0.04927597  0.15547695     0.33100
H1102       H  0.43590134  0.13816129  0.13825120     0.44000
H1103       H  0.35648229  0.22914744  0.15754643     0.37500
H1104       H  0.36499194  0.14802675  0.07525671     0.34000
H1105       H  0.44172179  0.01535812  0.14825761     0.25800
H1106       H  0.42644006  0.17929610  0.05361999     0.31700
H1107       H  0.37646937  0.25183720  0.07234755     0.37600
H1108       H  0.39204985  0.01361508  0.18677481     0.32100
H1109       H  0.34564947  0.09368147  0.20816644     0.31000
H1110       H  0.31177768  0.15582662  0.19558645     0.32700
H1111       H  0.32395826  0.26353818  0.13395209     0.31600
H1112       H  0.43856806  0.10806973  0.18271257     0.35600
H1113       H  0.44431374  0.21262520  0.17956295     0.28300
H1114       H  0.33532081  0.01605245  0.07906133     0.32600
H1115       H  0.31526455  0.23063648  0.08143553     0.35400
H1116       H  0.32706647  0.07398647  0.19179633     0.28000
H1117       H  0.43600749  0.25949692  0.17404961     0.40900
H1118       H  0.45161043  0.09466666  0.09825371     0.31000
H1119       H  0.43710033  0.03251462  0.12332300     0.38600
H1120       H  0.31672202  0.21686938  0.14015581     0.30400
H1121       H  0.39998059  0.18774369  0.05386931     0.30500
H1122       H  0.32080764  0.05784226  0.07555087     0.30800
Zr1123     Zr  0.35848523  0.57866837  0.10642090     2.17500
O1124       O  0.33044759  0.53749996  0.08442129    -0.51600
O1125       O  0.36818850  0.50456562  0.11679305    -0.74800
O1126       O  0.36980396  0.56847266  0.06600058    -0.81600
O1127       O  0.31279237  0.61903892  0.14827661    -0.83300
O1128       O  0.40504347  0.59729484  0.06038908    -0.78900
O1129       O  0.31719388  0.58062268  0.11534430    -0.90600
O1130       O  0.39747825  0.50209717  0.14242643    -0.76500
O1131       O  0.39896662  0.57558835  0.11153835    -0.86000
O1132       O  0.36496219  0.57660036  0.14715209    -0.85700
O1133       O  0.37296837  0.64310028  0.08846649    -0.72500
O1134       O  0.34309838  0.64409751  0.12148580    -0.84600
Zr1135     Zr  0.40597428  0.70251902  0.15009595     2.26400
Zr1136     Zr  0.41364801  0.63971247  0.09433569     2.06300
Zr1137     Zr  0.34997779  0.64234420  0.16199378     2.10000
Zr1138     Zr  0.40553538  0.57488000  0.15215991     1.78800
O1139       O  0.31863134  0.68594602  0.17660555    -0.93400
O1140       O  0.44216612  0.54412785  0.14064702    -0.41200
O1141       O  0.39046553  0.63952064  0.16806063    -0.77900
O1142       O  0.42168697  0.63689258  0.13497092    -0.96600
O1143       O  0.39888940  0.70542079  0.10957442    -0.89900
O1144       O  0.36540368  0.70632121  0.14540115    -0.92700
C1145       C  0.38279241  0.48408190  0.12934550     1.01100
C1146       C  0.30471191  0.59782552  0.13114608     1.14000
C1147       C  0.38734767  0.57675677  0.05332846     1.04800
O1148       O  0.44675842  0.59706073  0.08333330    -0.94900
O1149       O  0.44918898  0.67732296  0.10173284    -0.90600
O1150       O  0.44582406  0.70878372  0.13696694    -0.83700
C1151       C  0.45730859  0.69825680  0.11891389     1.11400
O1152       O  0.32776037  0.70638450  0.07628460    -0.96800
Zr1153     Zr  0.35836826  0.70777332  0.10499592     1.88900
O1154       O  0.39821463  0.77761053  0.14071633    -0.73500
O1155       O  0.41789897  0.68849526  0.06182183    -0.52700
O1156       O  0.36891585  0.73983484  0.06818894    -0.97400
O1157       O  0.32219317  0.73795806  0.11841785    -0.54600
O1158       O  0.36927252  0.77980984  0.11465788    -0.74000
C1159       C  0.38399792  0.79800232  0.12777329     0.98400
O1160       O  0.43141671  0.73579693  0.17833053    -0.62800
O1161       O  0.34254144  0.58874393  0.19161640    -0.57600
O1162       O  0.39500822  0.71124529  0.19058113    -0.94300
O1163       O  0.35964231  0.68280242  0.19624166    -0.92700
O1164       O  0.39518405  0.53849300  0.18777822    -0.93100
O1165       O  0.43383615  0.58432865  0.18267469    -0.91900
C1166       C  0.37734974  0.70338965  0.20317627     1.17200
H1167       H  0.35757766  0.55202595  0.15413809     0.33100
H1168       H  0.43791427  0.63384799  0.13791646     0.44000
H1169       H  0.35920932  0.73122067  0.15303175     0.37500
H1170       H  0.36920051  0.64480091  0.07244046     0.34000
H1171       H  0.44554384  0.52210126  0.15246678     0.25800
H1172       H  0.43091372  0.67674185  0.05290953     0.31700
H1173       H  0.38349075  0.75502293  0.07125534     0.37600
H1174       H  0.38794835  0.56092844  0.19736128     0.32100
H1175       H  0.34303717  0.60462779  0.20637324     0.31000
H1176       H  0.31108890  0.66777974  0.18834973     0.32700
H1177       H  0.32639093  0.75839300  0.13075438     0.31600
H1178       H  0.43589410  0.61569794  0.18384073     0.35600
H1179       H  0.44383750  0.71483322  0.18117436     0.28300
H1180       H  0.33889059  0.51260832  0.07816159     0.32600
H1181       H  0.32397350  0.73673121  0.07313295     0.35400
H1182       H  0.32619426  0.58113703  0.18958696     0.28000
H1183       H  0.43884132  0.76006039  0.17029534     0.40900
H1184       H  0.44451802  0.56925692  0.09117740     0.31000
H1185       H  0.43873480  0.52753425  0.12652718     0.38600
H1186       H  0.31447272  0.71417670  0.12658723     0.30400
H1187       H  0.40431889  0.68322554  0.05196267     0.30500
H1188       H  0.32655385  0.55521965  0.07078672     0.30800
Zr1189     Zr  0.35604121  0.35664970  0.40121393     2.17500
O1190       O  0.32721970  0.39709568  0.42247850    -0.51600
O1191       O  0.36165718  0.43147942  0.38939715    -0.74800
O1192       O  0.36745568  0.36916915  0.44163211    -0.81600
O1193       O  0.31096431  0.30783268  0.35876736    -0.83300
O1194       O  0.40341839  0.34356070  0.44757561    -0.78900
O1195       O  0.31514036  0.34684153  0.39160466    -0.90600
O1196       O  0.39079120  0.43381820  0.36365451    -0.76500
O1197       O  0.39639578  0.36362585  0.39590844    -0.86000
O1198       O  0.36244188  0.35695548  0.36049274    -0.85700
O1199       O  0.37276674  0.29491502  0.42005517    -0.72500
O1200       O  0.34241553  0.28930095  0.38712541    -0.84600
Zr1201     Zr  0.40586923  0.23376663  0.35950796     2.26400
Zr1202     Zr  0.41324618  0.30210614  0.41376084     2.06300
Zr1203     Zr  0.34915330  0.28927141  0.34663459     2.10000
Zr1204     Zr  0.40285201  0.36201053  0.35539480     1.78800
O1205       O  0.32217747  0.23619373  0.33228073    -0.93400
O1206       O  0.43787225  0.39943532  0.36627200    -0.41200
O1207       O  0.38935202  0.29519311  0.34098348    -0.77900
O1208       O  0.42059452  0.30149588  0.37307903    -0.96600
O1209       O  0.39955246  0.23423466  0.40012040    -0.89900
O1210       O  0.36552221  0.22725570  0.36444628    -0.92700
C1211       C  0.37559725  0.45185889  0.37619309     1.01100
C1212       C  0.30279817  0.32858392  0.37591915     1.14000
C1213       C  0.38519560  0.36249587  0.45446767     1.04800
O1214       O  0.44399144  0.35374136  0.41936411    -0.94900
O1215       O  0.44972963  0.26753878  0.40714303    -0.90600
O1216       O  0.44491624  0.22804922  0.37457279    -0.83700
C1217       C  0.45713335  0.24249551  0.39133056     1.11400
O1218       O  0.32760498  0.23579545  0.43225426    -0.96800
Zr1219     Zr  0.35916480  0.22838245  0.40506392     1.88900
O1220       O  0.39681909  0.15896582  0.36950841    -0.73500
O1221       O  0.42235657  0.25955032  0.44781715    -0.52700
O1222       O  0.36956342  0.20045129  0.44291463    -0.97400
O1223       O  0.32479652  0.19075517  0.39227873    -0.54600
O1224       O  0.37157646  0.15603967  0.39903785    -0.74000
C1225       C  0.38473461  0.13814084  0.38437446     0.98400
O1226       O  0.43166405  0.19607539  0.33338563    -0.62800
O1227       O  0.33715058  0.34091695  0.31747329    -0.57600
O1228       O  0.39864107  0.22956724  0.31765835    -0.94300
O1229       O  0.36328821  0.25783183  0.31148171    -0.92700
O1230       O  0.39209213  0.39240860  0.31823294    -0.93100
O1231       O  0.43272041  0.35387299  0.32643192    -0.91900
C1232       C  0.38154680  0.23908302  0.30449807     1.17200
H1233       H  0.35440882  0.38027260  0.35306568     0.33100
H1234       H  0.43664525  0.30468956  0.36983967     0.44000
H1235       H  0.35967356  0.20155921  0.35733908     0.37500
H1236       H  0.36919994  0.29342736  0.43637061     0.34000
H1237       H  0.43886606  0.42378726  0.35537882     0.25800
H1238       H  0.43338033  0.27718923  0.45665978     0.31700
H1239       H  0.38566975  0.19095842  0.44129715     0.37600
H1240       H  0.40108060  0.41917996  0.31705146     0.32100
H1241       H  0.35053446  0.34376854  0.30711986     0.31000
H1242       H  0.31501477  0.24967314  0.31858504     0.32700
H1243       H  0.33027337  0.16624375  0.38300625     0.31600
H1244       H  0.43062450  0.32450200  0.32040515     0.35600
H1245       H  0.44470038  0.21572697  0.33070036     0.28300
H1246       H  0.33534355  0.42223944  0.42887616     0.32600
H1247       H  0.32402234  0.20634406  0.43742356     0.35400
H1248       H  0.32553303  0.32568308  0.30811394     0.28000
H1249       H  0.43814903  0.17202148  0.34242392     0.40900
H1250       H  0.43619800  0.38131560  0.42235996     0.31000
H1251       H  0.43435577  0.41287121  0.38130887     0.38600
H1252       H  0.31774440  0.21030221  0.38084605     0.30400
H1253       H  0.40819686  0.25979050  0.45719737     0.30500
H1254       H  0.32336434  0.37929708  0.43607374     0.30800
Zr1255     Zr  0.35769649  0.85730363  0.40124817     2.17500
O1256       O  0.33064781  0.90089221  0.42307022    -0.51600
O1257       O  0.36813607  0.93165738  0.39154476    -0.74800
O1258       O  0.36893947  0.86438809  0.44213635    -0.81600
O1259       O  0.31214549  0.82763472  0.35539333    -0.83300
O1260       O  0.40324216  0.83174149  0.44760356    -0.78900
O1261       O  0.31653432  0.85401312  0.39171632    -0.90600
O1262       O  0.39776085  0.93374127  0.36639367    -0.76500
O1263       O  0.39823378  0.85822394  0.39659701    -0.86000
O1264       O  0.36460127  0.86149565  0.36068529    -0.85700
O1265       O  0.37076463  0.79085976  0.41815602    -0.72500
O1266       O  0.34129839  0.79418808  0.38438818    -0.84600
Zr1267     Zr  0.40283416  0.73300612  0.35582900     2.26400
Zr1268     Zr  0.41144136  0.79206805  0.41272507     2.06300
Zr1269     Zr  0.34869522  0.79812315  0.34401022     2.10000
Zr1270     Zr  0.40510589  0.86097457  0.35604545     1.78800
O1271       O  0.31807292  0.75200476  0.32998245    -0.93400
O1272       O  0.44250203  0.88864662  0.36738738    -0.41200
O1273       O  0.38916939  0.79840648  0.33887052    -0.77900
O1274       O  0.41964924  0.79664563  0.37219082    -0.96600
O1275       O  0.39550689  0.72831606  0.39623036    -0.89900
O1276       O  0.36217160  0.73183493  0.35977242    -0.92700
C1277       C  0.38301237  0.95197974  0.37926952     1.01100
C1278       C  0.30420571  0.84387897  0.37404237     1.14000
C1279       C  0.38620335  0.85380513  0.45485546     1.04800
O1280       O  0.44475564  0.83191111  0.42602268    -0.94900
O1281       O  0.44724495  0.75739358  0.40389912    -0.90600
O1282       O  0.44199915  0.72243537  0.36986877    -0.83700
C1283       C  0.45431578  0.73451405  0.38705921     1.11400
O1284       O  0.32456545  0.73492367  0.42885648    -0.96800
Zr1285     Zr  0.35488199  0.72844621  0.40016426     1.88900
O1286       O  0.39267845  0.65825446  0.36341123    -0.73500
O1287       O  0.41512900  0.73917141  0.44340555    -0.52700
O1288       O  0.36447691  0.69205572  0.43611629    -0.97400
O1289       O  0.31815665  0.70028795  0.38689207    -0.54600
O1290       O  0.36374187  0.65583035  0.38936689    -0.74000
C1291       C  0.37818602  0.63779527  0.37592263     0.98400
O1292       O  0.42756782  0.69526461  0.32879916    -0.62800
O1293       O  0.34033081  0.85300191  0.31528966    -0.57600
O1294       O  0.39508940  0.73166116  0.31419225    -0.94300
O1295       O  0.36134665  0.76601454  0.30819670    -0.92700
O1296       O  0.39436623  0.89806934  0.32069711    -0.93100
O1297       O  0.43412438  0.85188692  0.32631988    -0.91900
C1298       C  0.37871449  0.74460552  0.30100127     1.17200
H1299       H  0.35769759  0.88681753  0.35400598     0.33100
H1300       H  0.43573773  0.79891450  0.36911965     0.44000
H1301       H  0.35555915  0.70791807  0.35155015     0.37500
H1302       H  0.36686498  0.78842872  0.43411823     0.34000
H1303       H  0.44289078  0.91834501  0.36144379     0.25800
H1304       H  0.42819945  0.74937157  0.45282628     0.31700
H1305       H  0.37891520  0.67655455  0.43287647     0.37600
H1306       H  0.39201572  0.87504989  0.30921828     0.32100
H1307       H  0.35204346  0.84910715  0.30315045     0.31000
H1308       H  0.31190517  0.76692802  0.31623146     0.32700
H1309       H  0.32159798  0.68435496  0.37256541     0.31600
H1310       H  0.43313172  0.82131135  0.32197981     0.35600
H1311       H  0.44083857  0.71435708  0.32608451     0.28300
H1312       H  0.33985786  0.92418396  0.43000625     0.32600
H1313       H  0.31970194  0.70527391  0.43236397     0.35400
H1314       H  0.32583354  0.84368181  0.30796350     0.28000
H1315       H  0.43388222  0.67042990  0.33730655     0.40900
H1316       H  0.44027441  0.86238395  0.42479499     0.31000
H1317       H  0.44162715  0.89183476  0.38434443     0.38600
H1318       H  0.30947145  0.72573449  0.38163348     0.30400
H1319       H  0.40155203  0.74374127  0.45331392     0.30500
H1320       H  0.32582485  0.88293390  0.43628285     0.30800
Zr1321     Zr  0.65280404  0.35749753  0.10302575     2.17500
O1322       O  0.68219133  0.39401902  0.08049691    -0.51600
O1323       O  0.64592160  0.43357988  0.11148606    -0.74800
O1324       O  0.64043047  0.36893163  0.06278759    -0.81600
O1325       O  0.69894830  0.30483521  0.14329518    -0.83300
O1326       O  0.60371712  0.34611493  0.05875299    -0.78900
O1327       O  0.69396267  0.34875095  0.11229778    -0.90600
O1328       O  0.61897571  0.43760247  0.13950402    -0.76500
O1329       O  0.61304405  0.36735362  0.11073772    -0.86000
O1330       O  0.64886021  0.35799406  0.14413366    -0.85700
O1331       O  0.63398954  0.29677964  0.08544425    -0.72500
O1332       O  0.66572789  0.28921148  0.11681184    -0.84600
Zr1333     Zr  0.60200120  0.23821328  0.14752908     2.26400
Zr1334     Zr  0.59406785  0.30726030  0.09369925     2.06300
Zr1335     Zr  0.66094031  0.28879919  0.15767796     2.10000
Zr1336     Zr  0.60898838  0.36630722  0.15155649     1.78800
O1337       O  0.68678012  0.23172239  0.16975473    -0.93400
O1338       O  0.57245950  0.40293001  0.14654450    -0.41200
O1339       O  0.62110949  0.29798787  0.16501862    -0.77900
O1340       O  0.58854229  0.30743843  0.13477366    -0.96600
O1341       O  0.60679621  0.23840483  0.10674305    -0.89900
O1342       O  0.64207173  0.22844264  0.14087427    -0.92700
C1343       C  0.63270416  0.45480789  0.12504902     1.01100
C1344       C  0.70668684  0.32804801  0.12679477     1.14000
C1345       C  0.62203573  0.36327907  0.05077154     1.04800
O1346       O  0.56468579  0.36137941  0.08728360    -0.94900
O1347       O  0.55711443  0.27554603  0.10191424    -0.90600
O1348       O  0.56240549  0.23237598  0.13309890    -0.83700
C1349       C  0.54992553  0.24880939  0.11703524     1.11400
O1350       O  0.67474845  0.23218047  0.06892375    -0.96800
Zr1351     Zr  0.64676650  0.22951765  0.10008039     1.88900
O1352       O  0.60937923  0.16231864  0.13919811    -0.73500
O1353       O  0.58283584  0.26205695  0.06141484    -0.52700
O1354       O  0.63267256  0.19922072  0.06404143    -0.97400
O1355       O  0.68281747  0.19445107  0.11005929    -0.54600
O1356       O  0.63441886  0.15848202  0.10953295    -0.74000
C1357       C  0.62139830  0.14106927  0.12455629     0.98400
O1358       O  0.57573872  0.20501055  0.17486489    -0.62800
O1359       O  0.67686419  0.33704617  0.18655228    -0.57600
O1360       O  0.61060392  0.23354715  0.18900033    -0.94300
O1361       O  0.64653173  0.25988477  0.19387464    -0.92700
O1362       O  0.62699668  0.39447634  0.18634355    -0.93100
O1363       O  0.58422609  0.36547972  0.18529365    -0.91900
C1364       C  0.62811148  0.24248001  0.20168036     1.17200
H1365       H  0.65786572  0.38083141  0.15097996     0.33100
H1366       H  0.57256380  0.31145420  0.13867328     0.44000
H1367       H  0.64777635  0.20229949  0.14775823     0.37500
H1368       H  0.63672945  0.29436922  0.06919484     0.34000
H1369       H  0.57473219  0.43151755  0.15352551     0.25800
H1370       H  0.57032530  0.27796725  0.05366168     0.31700
H1371       H  0.61643259  0.19204228  0.06707299     0.37600
H1372       H  0.62780845  0.42580291  0.18396535     0.32100
H1373       H  0.66432647  0.34138785  0.19778621     0.31000
H1374       H  0.69795100  0.24568296  0.18018357     0.32700
H1375       H  0.67845578  0.16844462  0.11875984     0.31600
H1376       H  0.57743954  0.33644730  0.18535703     0.35600
H1377       H  0.56304333  0.22566766  0.17701113     0.28300
H1378       H  0.67462915  0.41971891  0.07400139     0.32600
H1379       H  0.67810736  0.20198619  0.06501124     0.35400
H1380       H  0.68832894  0.31964755  0.19498638     0.28000
H1381       H  0.56882600  0.18034994  0.16671019     0.40900
H1382       H  0.57315308  0.38870609  0.08594263     0.31000
H1383       H  0.57140089  0.40855228  0.12976902     0.38600
H1384       H  0.68991625  0.21333960  0.12175081     0.30400
H1385       H  0.59583592  0.26341432  0.05049254     0.30500
H1386       H  0.68510686  0.37533188  0.06702830     0.30800
Zr1387     Zr  0.65317029  0.86079530  0.10604095     2.17500
O1388       O  0.68252258  0.90202886  0.08599400    -0.51600
O1389       O  0.64213940  0.93534995  0.11361391    -0.74800
O1390       O  0.64439633  0.87000577  0.06499513    -0.81600
O1391       O  0.69805304  0.81689863  0.14862136    -0.83300
O1392       O  0.60869129  0.84316017  0.05931470    -0.78900
O1393       O  0.69393843  0.85947149  0.11706187    -0.90600
O1394       O  0.61306628  0.93621871  0.13939656    -0.76500
O1395       O  0.61260749  0.86455888  0.11062652    -0.86000
O1396       O  0.64607991  0.86247289  0.14664816    -0.85700
O1397       O  0.63850530  0.79690272  0.08762201    -0.72500
O1398       O  0.66798384  0.79490502  0.12122512    -0.84600
Zr1399     Zr  0.60512695  0.73534102  0.14807855     2.26400
Zr1400     Zr  0.59783445  0.80120241  0.09287431     2.06300
Zr1401     Zr  0.66042008  0.79612203  0.16156839     2.10000
Zr1402     Zr  0.60551898  0.86391550  0.15107602     1.78800
O1403       O  0.68999647  0.75021730  0.17798363    -0.93400
O1404       O  0.56809583  0.89357340  0.14133275    -0.41200
O1405       O  0.61990830  0.79837367  0.16655392    -0.77900
O1406       O  0.58960371  0.80175235  0.13348805    -0.96600
O1407       O  0.61237093  0.73465979  0.10763027    -0.89900
O1408       O  0.64573672  0.73228118  0.14416080    -0.92700
C1409       C  0.62703480  0.95501475  0.12579122     1.01100
C1410       C  0.70619330  0.84020929  0.13239711     1.14000
C1411       C  0.62682309  0.86241191  0.05224424     1.04800
O1412       O  0.56577877  0.84759664  0.08281971    -0.94900
O1413       O  0.56146976  0.76578026  0.09900370    -0.90600
O1414       O  0.56621422  0.72791645  0.13205169    -0.83700
C1415       C  0.55388499  0.74124893  0.11498197     1.11400
O1416       O  0.68289121  0.73996215  0.07482694    -0.96800
Zr1417     Zr  0.65294346  0.73194455  0.10376309     1.88900
O1418       O  0.61574387  0.66042500  0.14037815    -0.73500
O1419       O  0.59196481  0.75461851  0.05975119    -0.52700
O1420       O  0.64214169  0.69908345  0.06721820    -0.97400
O1421       O  0.68917186  0.70040585  0.11616926    -0.54600
O1422       O  0.64304170  0.65907677  0.11259120    -0.74000
C1423       C  0.62949521  0.64053592  0.12673098     0.98400
O1424       O  0.57864150  0.69915195  0.17414780    -0.62800
O1425       O  0.66889852  0.85064497  0.19039224    -0.57600
O1426       O  0.61357205  0.72972925  0.18953001    -0.94300
O1427       O  0.64814126  0.76035776  0.19635496    -0.92700
O1428       O  0.61781570  0.89786271  0.18680877    -0.93100
O1429       O  0.57726910  0.85833570  0.18179165    -0.91900
C1430       C  0.63037740  0.73968786  0.20297141     1.17200
H1431       H  0.65334685  0.88704110  0.15370377     0.33100
H1432       H  0.57331829  0.80411721  0.13635373     0.44000
H1433       H  0.65204840  0.70751781  0.15172439     0.37500
H1434       H  0.64249532  0.79480060  0.07154363     0.34000
H1435       H  0.56807504  0.92268134  0.14805867     0.25800
H1436       H  0.58003083  0.76920856  0.05045819     0.31700
H1437       H  0.62662009  0.68728282  0.06982967     0.37600
H1438       H  0.62252799  0.87384902  0.19691707     0.32100
H1439       H  0.67243929  0.83452935  0.20465683     0.31000
H1440       H  0.69813144  0.76853416  0.18926185     0.32700
H1441       H  0.68505415  0.67917352  0.12814132     0.31600
H1442       H  0.57496384  0.82718240  0.18385337     0.35600
H1443       H  0.56542566  0.71873772  0.17599827     0.28300
H1444       H  0.67431370  0.92569982  0.07819536     0.32600
H1445       H  0.68732380  0.71047228  0.07047021     0.35400
H1446       H  0.68377720  0.86298988  0.18563040     0.28000
H1447       H  0.57260489  0.67431413  0.16546490     0.40900
H1448       H  0.57232022  0.87679656  0.08224511     0.31000
H1449       H  0.56867242  0.89839015  0.12446971     0.38600
H1450       H  0.69702682  0.72352047  0.12476452     0.30400
H1451       H  0.60612818  0.75745270  0.05050331     0.30500
H1452       H  0.68796062  0.88341780  0.07331547     0.30800
Zr1453     Zr  0.65244857  0.07810118  0.39633442     2.17500
O1454       O  0.68052941  0.03351771  0.41629369    -0.51600
O1455       O  0.64251584  0.00417103  0.38520602    -0.74800
O1456       O  0.64324371  0.06803566  0.43755442    -0.81600
O1457       O  0.69671994  0.12053552  0.35349933    -0.83300
O1458       O  0.60740528  0.09446419  0.44255409    -0.78900
O1459       O  0.69370355  0.08527929  0.38753764    -0.90600
O1460       O  0.61392259  0.00215459  0.35875447    -0.76500
O1461       O  0.61207773  0.07251616  0.39040027    -0.86000
O1462       O  0.64590495  0.07820223  0.35552225    -0.85700
O1463       O  0.63658811  0.14085073  0.41485774    -0.72500
O1464       O  0.66670904  0.14504395  0.38201328    -0.84600
Zr1465     Zr  0.60325084  0.20303902  0.35432029     2.26400
Zr1466     Zr  0.59617033  0.13427676  0.40848284     2.06300
Zr1467     Zr  0.65957359  0.14551122  0.34156320     2.10000
Zr1468     Zr  0.60548159  0.07503191  0.34973559     1.78800
O1469       O  0.68872839  0.19679028  0.32984090    -0.93400
O1470       O  0.56875570  0.04168594  0.35850189    -0.41200
O1471       O  0.61926343  0.14164025  0.33543885    -0.77900
O1472       O  0.58838000  0.13548588  0.36778197    -0.96600
O1473       O  0.61010672  0.20197696  0.39491333    -0.89900
O1474       O  0.64369603  0.20796460  0.35918872    -0.92700
C1475       C  0.62825263  0.98387569  0.37213867     1.01100
C1476       C  0.70560073  0.10160380  0.37098570     1.14000
C1477       C  0.62553601  0.07577702  0.45011363     1.04800
O1478       O  0.56659746  0.08113726  0.41575166    -0.94900
O1479       O  0.55966118  0.16810340  0.40157249    -0.90600
O1480       O  0.56420096  0.21046014  0.36990052    -0.83700
C1481       C  0.55219381  0.19449273  0.38643044     1.11400
O1482       O  0.67926835  0.19983168  0.43005108    -0.96800
Zr1483     Zr  0.65056474  0.20683840  0.39965325     1.88900
O1484       O  0.61235122  0.27747210  0.36451310    -0.73500
O1485       O  0.58568860  0.17685565  0.44203317    -0.52700
O1486       O  0.63832367  0.24215822  0.43499297    -0.97400
O1487       O  0.68711104  0.23771171  0.38788875    -0.54600
O1488       O  0.64081779  0.27974433  0.39111350    -0.74000
C1489       C  0.62629562  0.29790801  0.37782096     0.98400
O1490       O  0.57601452  0.23390429  0.32693032    -0.62800
O1491       O  0.66954401  0.09547262  0.31097886    -0.57600
O1492       O  0.61350465  0.21287533  0.31335428    -0.94300
O1493       O  0.64816950  0.18217622  0.30676633    -0.92700
O1494       O  0.61939514  0.04562493  0.31350032    -0.93100
O1495       O  0.57729371  0.08200814  0.31889190    -0.91900
C1496       C  0.63058921  0.20348713  0.30014940     1.17200
H1497       H  0.65371777  0.05457397  0.34814088     0.33100
H1498       H  0.57237116  0.13281023  0.36456760     0.44000
H1499       H  0.64972066  0.23331111  0.35198482     0.37500
H1500       H  0.64033113  0.14293641  0.43105776     0.34000
H1501       H  0.56749660  0.01739137  0.34763004     0.25800
H1502       H  0.57436663  0.15909763  0.45039005     0.31700
H1503       H  0.63497734  0.21864036  0.44591936     0.37600
H1504       H  0.61067429  0.01874994  0.31137696     0.32100
H1505       H  0.65729359  0.09881651  0.29927279     0.31000
H1506       H  0.69763058  0.18196618  0.31772398     0.32700
H1507       H  0.68341885  0.25692637  0.37481476     0.31600
H1508       H  0.57600666  0.11321753  0.31623144     0.35600
H1509       H  0.56340798  0.21285526  0.32556999     0.28300
H1510       H  0.67175757  0.00936630  0.42293399     0.32600
H1511       H  0.68400348  0.22945747  0.43376854     0.35400
H1512       H  0.68332933  0.10793900  0.30366506     0.28000
H1513       H  0.56919091  0.25901330  0.33474468     0.40900
H1514       H  0.55725444  0.08090373  0.40150074     0.31000
H1515       H  0.57103955  0.02797706  0.37373592     0.38600
H1516       H  0.69566320  0.21372808  0.38081381     0.30400
H1517       H  0.59944139  0.17665833  0.45205912     0.30500
H1518       H  0.68560720  0.05048260  0.42977666     0.30800
Zr1519     Zr  0.65013496  0.57827355  0.39809210     2.17500
O1520       O  0.67807777  0.53302511  0.41782270    -0.51600
O1521       O  0.64048222  0.50447216  0.38670570    -0.74800
O1522       O  0.64132599  0.56886172  0.43955263    -0.81600
O1523       O  0.69419870  0.61829808  0.35467528    -0.83300
O1524       O  0.60579067  0.59655771  0.44473310    -0.78900
O1525       O  0.69120968  0.58315189  0.38879665    -0.90600
O1526       O  0.61189292  0.50177239  0.36028098    -0.76500
O1527       O  0.60975532  0.57263270  0.39237558    -0.86000
O1528       O  0.64350553  0.57801594  0.35728947    -0.85700
O1529       O  0.63456722  0.64147062  0.41631344    -0.72500
O1530       O  0.66464803  0.64483165  0.38335174    -0.84600
Zr1531     Zr  0.60120182  0.70274749  0.35546048     2.26400
Zr1532     Zr  0.59408608  0.63504638  0.41016420     2.06300
Zr1533     Zr  0.65729699  0.64485943  0.34289397     2.10000
Zr1534     Zr  0.60310856  0.57458308  0.35167668     1.78800
O1535       O  0.68623162  0.69644887  0.33099527    -0.93400
O1536       O  0.56622144  0.54275874  0.36130510    -0.41200
O1537       O  0.61704607  0.64074661  0.33701023    -0.77900
O1538       O  0.58637350  0.63544574  0.36941303    -0.96600
O1539       O  0.60801681  0.70252404  0.39607064    -0.89900
O1540       O  0.64167910  0.70778302  0.36017147    -0.92700
C1541       C  0.62651620  0.48386725  0.37348615     1.01100
C1542       C  0.70297241  0.59821783  0.37185225     1.14000
C1543       C  0.62382205  0.57738837  0.45228619     1.04800
O1544       O  0.56391561  0.58356564  0.41852693    -0.94900
O1545       O  0.55723087  0.66692739  0.40211827    -0.90600
O1546       O  0.56197240  0.70819336  0.37006991    -0.83700
C1547       C  0.54976419  0.69215981  0.38637348     1.11400
O1548       O  0.67863584  0.70075530  0.42972474    -0.96800
Zr1549     Zr  0.64856135  0.70705401  0.40066816     1.88900
O1550       O  0.61107626  0.77741362  0.36496163    -0.73500
O1551       O  0.58436821  0.68001617  0.44300935    -0.52700
O1552       O  0.63730351  0.73902601  0.43725516    -0.97400
O1553       O  0.68427724  0.74022899  0.38813237    -0.54600
O1554       O  0.63834811  0.77985543  0.39274186    -0.74000
C1555       C  0.62455931  0.79798967  0.37870468     0.98400
O1556       O  0.57544249  0.74033883  0.32907837    -0.62800
O1557       O  0.66855376  0.59557272  0.31236400    -0.57600
O1558       O  0.60835971  0.70717925  0.31368050    -0.94300
O1559       O  0.64364792  0.67852876  0.30788915    -0.92700
O1560       O  0.61603520  0.54314226  0.31556234    -0.93100
O1561       O  0.57473698  0.58183148  0.32101302    -0.91900
C1562       C  0.62552295  0.69771395  0.30071080     1.17200
H1563       H  0.65130557  0.55427574  0.34991227     0.33100
H1564       H  0.57037161  0.63205895  0.36597784     0.44000
H1565       H  0.64774067  0.73306233  0.35278793     0.37500
H1566       H  0.63837320  0.64387350  0.43221636     0.34000
H1567       H  0.56528911  0.51654446  0.35177369     0.25800
H1568       H  0.57460629  0.66172652  0.45289039     0.31700
H1569       H  0.62177121  0.75075015  0.43448988     0.37600
H1570       H  0.61860414  0.56784458  0.30518530     0.32100
H1571       H  0.65736680  0.60021494  0.29975149     0.31000
H1572       H  0.69419979  0.68271226  0.31788664     0.32700
H1573       H  0.67991259  0.76053982  0.37576969     0.31600
H1574       H  0.57659529  0.61152134  0.31534594     0.35600
H1575       H  0.56251870  0.72051996  0.32617178     0.28300
H1576       H  0.66918855  0.50910546  0.42454648     0.32600
H1577       H  0.68291883  0.73051157  0.43369052     0.35400
H1578       H  0.68312172  0.60725027  0.30631996     0.28000
H1579       H  0.56877532  0.76422167  0.33805730     0.40900
H1580       H  0.57189376  0.55580946  0.42039157     0.31000
H1581       H  0.56810588  0.53206808  0.37727551     0.38600
H1582       H  0.69267930  0.71717017  0.38005645     0.30400
H1583       H  0.59887358  0.68302909  0.45174901     0.30500
H1584       H  0.68343329  0.54985238  0.43125422     0.30800
Zr1585     Zr  0.85768994  0.11415098  0.39768703     2.17500
O1586       O  0.83071900  0.15951835  0.41853189    -0.51600
O1587       O  0.86721628  0.18824499  0.38748632    -0.74800
O1588       O  0.86701988  0.12099677  0.43890903    -0.81600
O1589       O  0.81252777  0.08733948  0.35109893    -0.83300
O1590       O  0.90174362  0.08983706  0.44448075    -0.78900
O1591       O  0.81687223  0.11127183  0.38789369    -0.90600
O1592       O  0.89707494  0.18899840  0.36267525    -0.76500
O1593       O  0.89830508  0.11552861  0.39303418    -0.86000
O1594       O  0.86458790  0.11655761  0.35706112    -0.85700
O1595       O  0.87117211  0.04860922  0.41528641    -0.72500
O1596       O  0.84074149  0.05085209  0.38167929    -0.84600
Zr1597     Zr  0.90266523  0.98830212  0.35396345     2.26400
Zr1598     Zr  0.91186688  0.05023715  0.40991375     2.06300
Zr1599     Zr  0.84831452  0.05272140  0.34126612     2.10000
Zr1600     Zr  0.90509948  0.11615797  0.35246440     1.78800
O1601       O  0.81748274  0.00386113  0.33091222    -0.93400
O1602       O  0.94245150  0.14498729  0.36305391    -0.41200
O1603       O  0.88892970  0.05291892  0.33610722    -0.77900
O1604       O  0.92000107  0.05227151  0.36931717    -0.96600
O1605       O  0.89535604  0.98617328  0.39435486    -0.89900
O1606       O  0.86201245  0.98753051  0.35802012    -0.92700
C1607       C  0.88212897  0.20795140  0.37510034     1.01100
C1608       C  0.80467171  0.10283294  0.36995715     1.14000
C1609       C  0.88417514  0.11064523  0.45173269     1.04800
O1610       O  0.94416932  0.09700898  0.41833440    -0.94900
O1611       O  0.94660196  0.00925642  0.40364890    -0.90600
O1612       O  0.94152915  0.97613388  0.36916589    -0.83700
C1613       C  0.95377062  0.98605581  0.38692042     1.11400
O1614       O  0.82667350  0.99642090  0.42896912    -0.96800
Zr1615     Zr  0.85474834  0.98619901  0.39835943     1.88900
O1616       O  0.89151860  0.91413010  0.36186576    -0.73500
O1617       O  0.91890112  0.00332831  0.44276376    -0.52700
O1618       O  0.86445773  0.94709420  0.43343648    -0.97400
O1619       O  0.81703930  0.96077453  0.38644692    -0.54600
O1620       O  0.86234867  0.91335433  0.38751055    -0.74000
C1621       C  0.87658637  0.89442047  0.37422543     0.98400
O1622       O  0.92777436  0.95207542  0.32659479    -0.62800
O1623       O  0.83927488  0.10284958  0.31030356    -0.57600
O1624       O  0.89351832  0.98438024  0.31270234    -0.94300
O1625       O  0.85906534  0.01618088  0.30611022    -0.92700
O1626       O  0.89399548  0.15251851  0.31698742    -0.93100
O1627       O  0.93358725  0.10822518  0.32210221    -0.91900
C1628       C  0.87664588  0.99488929  0.29948649     1.17200
H1629       H  0.85767967  0.14149405  0.35006918     0.33100
H1630       H  0.93635959  0.05328206  0.36647692     0.44000
H1631       H  0.85529384  0.96326532  0.35018716     0.37500
H1632       H  0.86718479  0.04597433  0.43128844     0.34000
H1633       H  0.94346836  0.17265973  0.35478701     0.25800
H1634       H  0.92982903  0.01922351  0.45263666     0.31700
H1635       H  0.88067732  0.93856273  0.43146735     0.37600
H1636       H  0.88899717  0.12932513  0.30651322     0.32100
H1637       H  0.85086089  0.09747140  0.29820405     0.31000
H1638       H  0.80975475  0.01762687  0.31761772     0.32700
H1639       H  0.81991934  0.94195933  0.37303470     0.31600
H1640       H  0.92862049  0.08270353  0.31331056     0.35600
H1641       H  0.94106973  0.97134566  0.32444313     0.28300
H1642       H  0.84013976  0.18049733  0.42710563     0.32600
H1643       H  0.82007842  0.96775983  0.43194547     0.35400
H1644       H  0.82475249  0.09212503  0.30361092     0.28000
H1645       H  0.93396048  0.92681167  0.33482445     0.40900
H1646       H  0.95242712  0.08270651  0.43113736     0.31000
H1647       H  0.94092570  0.15300993  0.37949499     0.38600
H1648       H  0.80930961  0.98620160  0.37983481     0.30400
H1649       H  0.90436666  0.00340597  0.45154603     0.30500
H1650       H  0.82394608  0.14095831  0.43057473     0.30800
Zr1651     Zr  0.85428991  0.60998670  0.39629163     2.17500
O1652       O  0.82459201  0.64707850  0.41813300    -0.51600
O1653       O  0.86051295  0.68628370  0.38823888    -0.74800
O1654       O  0.86339593  0.61607137  0.43774521    -0.81600
O1655       O  0.81088411  0.57564532  0.34889080    -0.83300
O1656       O  0.89912660  0.58882755  0.44304195    -0.78900
O1657       O  0.81390526  0.60351527  0.38495722    -0.90600
O1658       O  0.88975529  0.69075635  0.36285756    -0.76500
O1659       O  0.89481506  0.61700882  0.39204554    -0.86000
O1660       O  0.86149760  0.61540523  0.35573689    -0.85700
O1661       O  0.87037214  0.54564069  0.41289338    -0.72500
O1662       O  0.84045434  0.54527727  0.37891901    -0.84600
Zr1663     Zr  0.90488554  0.49182525  0.35119054     2.26400
Zr1664     Zr  0.91100405  0.55293736  0.40792707     2.06300
Zr1665     Zr  0.84857009  0.54994205  0.33866193     2.10000
Zr1666     Zr  0.90192602  0.62042224  0.35160850     1.78800
O1667       O  0.81981945  0.49909987  0.32539195    -0.93400
O1668       O  0.93708627  0.65662284  0.36315830    -0.41200
O1669       O  0.88905624  0.55555816  0.33423318    -0.77900
O1670       O  0.91926459  0.55764663  0.36744794    -0.96600
O1671       O  0.89726335  0.48738320  0.39148791    -0.89900
O1672       O  0.86430117  0.48565064  0.35464429    -0.92700
C1673       C  0.87451111  0.70787169  0.37569956     1.01100
C1674       C  0.80217070  0.59187294  0.36718441     1.14000
C1675       C  0.88086535  0.60714873  0.45050800     1.04800
O1676       O  0.94132717  0.60440114  0.41573755    -0.94900
O1677       O  0.94732672  0.51668380  0.40151288    -0.90600
O1678       O  0.94355438  0.48355771  0.36688981    -0.83700
C1679       C  0.95528921  0.49445110  0.38474882     1.11400
O1680       O  0.82642174  0.48681720  0.42369082    -0.96800
Zr1681     Zr  0.85672831  0.48206448  0.39491608     1.88900
O1682       O  0.89774752  0.41549666  0.35870365    -0.73500
O1683       O  0.91928672  0.50836725  0.44143749    -0.52700
O1684       O  0.86670366  0.44461827  0.43042102    -0.97400
O1685       O  0.82156899  0.44850561  0.38108463    -0.54600
O1686       O  0.86928435  0.41158469  0.38506097    -0.74000
C1687       C  0.88400094  0.39423953  0.37172564     0.98400
O1688       O  0.93247346  0.46432310  0.32336399    -0.62800
O1689       O  0.83866974  0.60164979  0.30876409    -0.57600
O1690       O  0.89662965  0.48515883  0.30980329    -0.94300
O1691       O  0.86262259  0.51829696  0.30324923    -0.92700
O1692       O  0.88968126  0.65102161  0.31491392    -0.93100
O1693       O  0.93178010  0.62193662  0.32234240    -0.91900
C1694       C  0.88013559  0.49687093  0.29642379     1.17200
H1695       H  0.85370691  0.63951563  0.34901810     0.33100
H1696       H  0.93560763  0.56091639  0.36480253     0.44000
H1697       H  0.85868816  0.46102171  0.34655569     0.37500
H1698       H  0.86635937  0.54170462  0.42873099     0.34000
H1699       H  0.93662243  0.68452432  0.35505841     0.25800
H1700       H  0.92212945  0.47942299  0.43513199     0.31700
H1701       H  0.87650282  0.46489513  0.43906109     0.37600
H1702       H  0.88872212  0.68223712  0.31761008     0.32100
H1703       H  0.85254573  0.60378708  0.29904010     0.31000
H1704       H  0.81356221  0.51182050  0.31105218     0.32700
H1705       H  0.82631945  0.42982343  0.36817451     0.31600
H1706       H  0.93378400  0.59161121  0.31784380     0.35600
H1707       H  0.94491919  0.48580394  0.32259734     0.28300
H1708       H  0.83244706  0.67034711  0.42660046     0.32600
H1709       H  0.82156984  0.45696168  0.42665870     0.35400
H1710       H  0.82732268  0.58674839  0.29892228     0.28000
H1711       H  0.93947987  0.43866965  0.33052995     0.40900
H1712       H  0.94784665  0.59534299  0.43075386     0.31000
H1713       H  0.93473335  0.66395349  0.37959251     0.38600
H1714       H  0.81286528  0.47197452  0.37363633     0.30400
H1715       H  0.93444508  0.51816923  0.44701793     0.30500
H1716       H  0.81961511  0.62663480  0.43017984     0.30800
Zr1717     Zr  0.85924934  0.32553442  0.10218725     2.17500
O1718       O  0.83137977  0.28478738  0.07975010    -0.51600
O1719       O  0.86743736  0.25065388  0.11212181    -0.74800
O1720       O  0.87116625  0.31575023  0.06172817    -0.81600
O1721       O  0.81260189  0.36939198  0.14337862    -0.83300
O1722       O  0.90721045  0.34149429  0.05691006    -0.78900
O1723       O  0.81808483  0.32893889  0.11122923    -0.90600
O1724       O  0.89448456  0.24822304  0.14018345    -0.76500
O1725       O  0.89943036  0.31990518  0.10869553    -0.86000
O1726       O  0.86436437  0.32440133  0.14318205    -0.85700
O1727       O  0.87530946  0.38867285  0.08432523    -0.72500
O1728       O  0.84426430  0.39198416  0.11657702    -0.84600
Zr1729     Zr  0.90684602  0.44810728  0.14642273     2.26400
Zr1730     Zr  0.91564970  0.38265031  0.09148033     2.06300
Zr1731     Zr  0.84994618  0.39125828  0.15734489     2.10000
Zr1732     Zr  0.90467526  0.32042242  0.14949412     1.78800
O1733       O  0.81904516  0.43774032  0.17019491    -0.93400
O1734       O  0.94081560  0.28662382  0.13891309    -0.41200
O1735       O  0.89018114  0.38633629  0.16450257    -0.77900
O1736       O  0.92225163  0.38129223  0.13242478    -0.96600
O1737       O  0.90124987  0.44953316  0.10567379    -0.89900
O1738       O  0.86655053  0.45381344  0.14050171    -0.92700
C1739       C  0.88066882  0.23023075  0.12609403     1.01100
C1740       C  0.80520282  0.34686393  0.12646111     1.14000
C1741       C  0.88908860  0.32294164  0.04932355     1.04800
O1742       O  0.94812201  0.33556595  0.08432942    -0.94900
O1743       O  0.95096252  0.42025364  0.09932279    -0.90600
O1744       O  0.94689886  0.45218635  0.13435608    -0.83700
C1745       C  0.95871244  0.44120251  0.11665199     1.11400
O1746       O  0.83255034  0.44760771  0.06911820    -0.96800
Zr1747     Zr  0.86095979  0.45419607  0.09983575     1.88900
O1748       O  0.89938814  0.52346334  0.13722257    -0.73500
O1749       O  0.92285940  0.42873840  0.05836109    -0.52700
O1750       O  0.87393980  0.48802211  0.06429883    -0.97400
O1751       O  0.82427963  0.48679442  0.10970772    -0.54600
O1752       O  0.87137568  0.52611469  0.11023046    -0.74000
C1753       C  0.88559567  0.54414683  0.12395901     0.98400
O1754       O  0.93152794  0.48508473  0.17400196    -0.62800
O1755       O  0.84088758  0.33960950  0.18751438    -0.57600
O1756       O  0.89626234  0.45556717  0.18697645    -0.94300
O1757       O  0.85995195  0.43125517  0.19181379    -0.92700
O1758       O  0.89337498  0.28651290  0.18553420    -0.93100
O1759       O  0.93304527  0.32747782  0.18015655    -0.91900
C1760       C  0.87817400  0.44969035  0.19922036     1.17200
H1761       H  0.85638749  0.30039082  0.15009448     0.33100
H1762       H  0.93833128  0.37766882  0.13595671     0.44000
H1763       H  0.86044978  0.47919620  0.14775752     0.37500
H1764       H  0.87207818  0.39071698  0.06824543     0.34000
H1765       H  0.94263748  0.26265942  0.14995467     0.25800
H1766       H  0.93473525  0.41354270  0.04934748     0.31700
H1767       H  0.88908138  0.50044559  0.06812227     0.37600
H1768       H  0.88514585  0.30915911  0.19410657     0.32100
H1769       H  0.83824558  0.35703038  0.20150970     0.31000
H1770       H  0.81139530  0.42153347  0.18267642     0.32700
H1771       H  0.82506043  0.51620586  0.10339540     0.31600
H1772       H  0.92882690  0.35420055  0.18826915     0.35600
H1773       H  0.94352531  0.46420807  0.17841250     0.28300
H1774       H  0.84008295  0.26095389  0.07274674     0.32600
H1775       H  0.82916589  0.47719825  0.06401927     0.35400
H1776       H  0.82553573  0.32849635  0.18337980     0.28000
H1777       H  0.93961538  0.50763002  0.16520067     0.40900
H1778       H  0.94152298  0.30640445  0.08392946     0.31000
H1779       H  0.93770469  0.27250678  0.12395499     0.38600
H1780       H  0.82467662  0.49067054  0.12664349     0.30400
H1781       H  0.90882944  0.42675580  0.04878956     0.30500
H1782       H  0.82711490  0.30344898  0.06659741     0.30800
Zr1783     Zr  0.85710345  0.82627916  0.10521084     2.17500
O1784       O  0.82769148  0.78651866  0.08426013    -0.51600
O1785       O  0.86647197  0.75118059  0.11306866    -0.74800
O1786       O  0.86551095  0.81904916  0.06379695    -0.81600
O1787       O  0.81293152  0.86604368  0.14975043    -0.83300
O1788       O  0.90123653  0.84587227  0.05855205    -0.78900
O1789       O  0.81675895  0.82731081  0.11673492    -0.90600
O1790       O  0.89461318  0.74847735  0.13991590    -0.76500
O1791       O  0.89757636  0.82069284  0.11014327    -0.86000
O1792       O  0.86412721  0.82379041  0.14590261    -0.85700
O1793       O  0.87230496  0.89028983  0.08752180    -0.72500
O1794       O  0.84270148  0.89209723  0.12088246    -0.84600
Zr1795     Zr  0.90678003  0.94883363  0.14827831     2.26400
Zr1796     Zr  0.91291695  0.88395456  0.09291259     2.06300
Zr1797     Zr  0.85061999  0.89021739  0.16126355     2.10000
Zr1798     Zr  0.90458554  0.82030864  0.15068749     1.78800
O1799       O  0.82044066  0.93748995  0.17508729    -0.93400
O1800       O  0.94039018  0.78438560  0.14107840    -0.41200
O1801       O  0.89111880  0.88614969  0.16651060    -0.77900
O1802       O  0.92134547  0.88204716  0.13345226    -0.96600
O1803       O  0.89914181  0.95083105  0.10787051    -0.89900
O1804       O  0.86617029  0.95353940  0.14433925    -0.92700
C1805       C  0.88061263  0.73051609  0.12596281     1.01100
C1806       C  0.80477436  0.84409693  0.13296254     1.14000
C1807       C  0.88299253  0.82754174  0.05110105     1.04800
O1808       O  0.94277766  0.83270969  0.08316339    -0.94900
O1809       O  0.94991180  0.91619872  0.09947886    -0.90600
O1810       O  0.94543830  0.95645775  0.13179580    -0.83700
C1811       C  0.95752099  0.94156368  0.11502734     1.11400
O1812       O  0.82927297  0.95205340  0.07402038    -0.96800
Zr1813     Zr  0.85852867  0.95506733  0.10408946     1.88900
O1814       O  0.89720848  0.02428610  0.14120622    -0.73500
O1815       O  0.92109011  0.93062922  0.06027688    -0.52700
O1816       O  0.87055515  0.98908262  0.06824596    -0.97400
O1817       O  0.82185126  0.98512428  0.11604384    -0.54600
O1818       O  0.86814625  0.02680187  0.11520046    -0.74000
C1819       C  0.88263327  0.04471600  0.12865733     0.98400
O1820       O  0.93485371  0.98000484  0.17460700    -0.62800
O1821       O  0.84304324  0.83845185  0.19174532    -0.57600
O1822       O  0.89823977  0.95831351  0.18936769    -0.94300
O1823       O  0.86326788  0.92866948  0.19523053    -0.92700
O1824       O  0.89232705  0.79004492  0.18735557    -0.93100
O1825       O  0.93442826  0.82597210  0.17996539    -0.91900
C1826       C  0.88089298  0.94962596  0.20222169     1.17200
H1827       H  0.85647710  0.79961910  0.15295903     0.33100
H1828       H  0.93753634  0.87905272  0.13631431     0.44000
H1829       H  0.86013995  0.97844549  0.15218246     0.37500
H1830       H  0.86828102  0.89342732  0.07163405     0.34000
H1831       H  0.94068359  0.75850703  0.15094767     0.25800
H1832       H  0.93147831  0.91372423  0.05033649     0.31700
H1833       H  0.88420368  0.00624925  0.07240943     0.37600
H1834       H  0.89631196  0.75930679  0.18638881     0.32100
H1835       H  0.85554898  0.84279950  0.20306969     0.31000
H1836       H  0.81421871  0.92309387  0.18894360     0.32700
H1837       H  0.82483580  0.99852890  0.13121728     0.31600
H1838       H  0.93770544  0.85699144  0.18099338     0.35600
H1839       H  0.94770579  0.95935538  0.17551791     0.28300
H1840       H  0.83584391  0.76335518  0.07604150     0.32600
H1841       H  0.82535379  0.98220761  0.07051770     0.35400
H1842       H  0.82916478  0.84933997  0.19958604     0.28000
H1843       H  0.94114364  0.00544630  0.16663954     0.40900
H1844       H  0.95141954  0.82845258  0.09769310     0.31000
H1845       H  0.93798577  0.77319574  0.12528850     0.38600
H1846       H  0.81216523  0.96000265  0.11963730     0.30400
H1847       H  0.90652693  0.93212799  0.05151546     0.30500
H1848       H  0.82221202  0.80600210  0.07193771     0.30800
Zr1849     Zr  0.15140109  0.11053763  0.10644989     2.17500
O1850       O  0.17924913  0.15635679  0.08706995    -0.51600
O1851       O  0.14094659  0.18460807  0.11598386    -0.74800
O1852       O  0.14299033  0.11772700  0.06502694    -0.81600
O1853       O  0.19662748  0.06677460  0.14960766    -0.83300
O1854       O  0.10733527  0.09054906  0.05911870    -0.78900
O1855       O  0.19224703  0.10471773  0.11631259    -0.90600
O1856       O  0.11057981  0.18715633  0.14024161    -0.76500
O1857       O  0.11089825  0.11431438  0.11094506    -0.86000
O1858       O  0.14437747  0.11253276  0.14712751    -0.85700
O1859       O  0.13702754  0.04636577  0.08839505    -0.72500
O1860       O  0.16624423  0.04538441  0.12223990    -0.84600
Zr1861     Zr  0.10346118  0.98574133  0.14857352     2.26400
Zr1862     Zr  0.09641898  0.05067205  0.09333319     2.06300
Zr1863     Zr  0.15871137  0.04646170  0.16252697     2.10000
Zr1864     Zr  0.10375998  0.11431328  0.15145625     1.78800
O1865       O  0.18843395  0.00021248  0.17839702    -0.93400
O1866       O  0.06647611  0.14494192  0.14201449    -0.41200
O1867       O  0.11816503  0.04887744  0.16705396    -0.77900
O1868       O  0.08798174  0.05199740  0.13387677    -0.96600
O1869       O  0.11119420  0.98450812  0.10825445    -0.89900
O1870       O  0.14412266  0.98255457  0.14519099    -0.92700
C1871       C  0.12561987  0.20507070  0.12752260     1.01100
C1872       C  0.20455982  0.08757222  0.13230468     1.14000
C1873       C  0.12561160  0.10931241  0.05208771     1.04800
O1874       O  0.06533165  0.09844352  0.08231713    -0.94900
O1875       O  0.05987889  0.01693112  0.10045310    -0.90600
O1876       O  0.06477175  0.97608173  0.13262406    -0.83700
C1877       C  0.05261051  0.99103773  0.11591809     1.11400
O1878       O  0.18352567  0.99148837  0.07793581    -0.96800
Zr1879     Zr  0.15188567  0.98220360  0.10486530     1.88900
O1880       O  0.11447566  0.91142479  0.13981971    -0.73500
O1881       O  0.08995230  0.00179710  0.06129405    -0.52700
O1882       O  0.14322467  0.95025302  0.06753802    -0.97400
O1883       O  0.18710448  0.95069974  0.11991367    -0.54600
O1884       O  0.14199866  0.90931941  0.11242215    -0.74000
C1885       C  0.12833485  0.89104574  0.12642491     0.98400
O1886       O  0.07638809  0.95297396  0.17526923    -0.62800
O1887       O  0.16741724  0.09978445  0.19194717    -0.57600
O1888       O  0.11100885  0.97762045  0.18995530    -0.94300
O1889       O  0.14510747  0.01012796  0.19679479    -0.92700
O1890       O  0.11671699  0.14822556  0.18696383    -0.93100
O1891       O  0.07566012  0.10641337  0.18218849    -0.91900
C1892       C  0.12763774  0.98833748  0.20335311     1.17200
H1893       H  0.15169190  0.13699478  0.15420050     0.33100
H1894       H  0.07187697  0.05418649  0.13675514     0.44000
H1895       H  0.15029699  0.95786844  0.15281423     0.37500
H1896       H  0.14132840  0.04347136  0.07169332     0.34000
H1897       H  0.06458990  0.16919631  0.15281070     0.25800
H1898       H  0.07721107  0.01486365  0.05244312     0.31700
H1899       H  0.15199660  0.92314979  0.06722594     0.37600
H1900       H  0.12035563  0.12413769  0.19745925     0.32100
H1901       H  0.16260600  0.08661094  0.20669495     0.31000
H1902       H  0.19466237  0.01620032  0.19174706     0.32700
H1903       H  0.18252335  0.92353266  0.12734216     0.31600
H1904       H  0.07464688  0.07516288  0.18481593     0.35600
H1905       H  0.06337199  0.97318561  0.17651735     0.28300
H1906       H  0.17020174  0.17948924  0.07972913     0.32600
H1907       H  0.18945527  0.96235064  0.07489607     0.35400
H1908       H  0.18436137  0.10039469  0.19280373     0.28000
H1909       H  0.07014261  0.92746350  0.16732529     0.40900
H1910       H  0.05803137  0.10639923  0.09708586     0.31000
H1911       H  0.06860356  0.15863485  0.12676491     0.38600
H1912       H  0.19124476  0.96949562  0.13299118     0.30400
H1913       H  0.10353374  0.00521713  0.05124826     0.30500
H1914       H  0.18524066  0.13924706  0.07403399     0.30800
Zr1915     Zr  0.15191729  0.61058652  0.10568360     2.17500
O1916       O  0.18013682  0.65148247  0.08384250    -0.51600
O1917       O  0.14166439  0.68446363  0.11614569    -0.74800
O1918       O  0.14048892  0.62120970  0.06508414    -0.81600
O1919       O  0.19842827  0.57073453  0.14807782    -0.83300
O1920       O  0.10539384  0.59183987  0.05947563    -0.78900
O1921       O  0.19296468  0.60991965  0.11538748    -0.90600
O1922       O  0.11396080  0.68625844  0.14336917    -0.76500
O1923       O  0.11165370  0.61460619  0.11153878    -0.86000
O1924       O  0.14606757  0.61145349  0.14650378    -0.85700
O1925       O  0.13708626  0.54660035  0.08760157    -0.72500
O1926       O  0.16765326  0.54471921  0.12022915    -0.84600
Zr1927     Zr  0.10530214  0.48573867  0.14880630     2.26400
Zr1928     Zr  0.09660831  0.55149749  0.09396519     2.06300
Zr1929     Zr  0.16137315  0.54543529  0.16084867     2.10000
Zr1930     Zr  0.10559504  0.61318627  0.15221483     1.78800
O1931       O  0.19205322  0.49805935  0.17354803    -0.93400
O1932       O  0.06908598  0.64583713  0.14174412    -0.41200
O1933       O  0.12097392  0.54807063  0.16709604    -0.77900
O1934       O  0.08915888  0.55153951  0.13464019    -0.96600
O1935       O  0.11166138  0.48512440  0.10825622    -0.89900
O1936       O  0.14578073  0.48202152  0.14391256    -0.92700
C1937       C  0.12774385  0.70468930  0.12952678     1.01100
C1938       C  0.20576337  0.59317462  0.13111848     1.14000
C1939       C  0.12294970  0.61254104  0.05235139     1.04800
O1940       O  0.06552837  0.60267861  0.08896561    -0.94900
O1941       O  0.06154535  0.51297012  0.10005993    -0.90600
O1942       O  0.06679019  0.47437173  0.13277810    -0.83700
C1943       C  0.05444774  0.48727788  0.11564411     1.11400
O1944       O  0.18076305  0.48856490  0.07319809    -0.96800
Zr1945     Zr  0.15204708  0.48142244  0.10343174     1.88900
O1946       O  0.11402437  0.41095442  0.14003735    -0.73500
O1947       O  0.08658165  0.50779347  0.06064946    -0.52700
O1948       O  0.13956422  0.44479190  0.06851815    -0.97400
O1949       O  0.18866708  0.45027962  0.11495304    -0.54600
O1950       O  0.14288062  0.40860476  0.11389040    -0.74000
C1951       C  0.12839504  0.39059580  0.12730251     0.98400
O1952       O  0.07783811  0.46109253  0.17759555    -0.62800
O1953       O  0.17006828  0.59771773  0.19081068    -0.57600
O1954       O  0.11675486  0.47434360  0.18900945    -0.94300
O1955       O  0.15109826  0.50649959  0.19544756    -0.92700
O1956       O  0.11729072  0.64517413  0.18865681    -0.93100
O1957       O  0.07673566  0.60359821  0.18206530    -0.91900
C1958       C  0.13390514  0.48409031  0.20202035     1.17200
H1959       H  0.15356368  0.63574056  0.15353257     0.33100
H1960       H  0.07290944  0.55307936  0.13769343     0.44000
H1961       H  0.15206587  0.45718101  0.15132594     0.37500
H1962       H  0.14066002  0.54510518  0.07120690     0.34000
H1963       H  0.06709664  0.66963212  0.15281706     0.25800
H1964       H  0.07438256  0.52403392  0.05260310     0.31700
H1965       H  0.13635522  0.46791685  0.05728544     0.37600
H1966       H  0.12215121  0.62067432  0.19834592     0.32100
H1967       H  0.16703636  0.58284827  0.20557451     0.31000
H1968       H  0.19983499  0.51388109  0.18610664     0.32700
H1969       H  0.18516209  0.43167626  0.12830552     0.31600
H1970       H  0.07510657  0.57219237  0.18359270     0.35600
H1971       H  0.06510734  0.48204606  0.17722245     0.28300
H1972       H  0.17175921  0.67650331  0.07757483     0.32600
H1973       H  0.18512932  0.45892394  0.06908069     0.35400
H1974       H  0.18693603  0.60098726  0.19039155     0.28000
H1975       H  0.07126906  0.43422675  0.17141656     0.40900
H1976       H  0.05892691  0.59591980  0.07365524     0.31000
H1977       H  0.07193465  0.66010886  0.12676900     0.38600
H1978       H  0.19742867  0.47440768  0.12164194     0.30400
H1979       H  0.09997609  0.50952428  0.05023972     0.30500
H1980       H  0.18390657  0.63377085  0.07020721     0.30800
Zr1981     Zr  0.15022731  0.32826291  0.39971992     2.17500
O1982       O  0.17794805  0.28911925  0.42326301    -0.51600
O1983       O  0.14250076  0.25321567  0.39022367    -0.74800
O1984       O  0.13736665  0.31920412  0.43982165    -0.81600
O1985       O  0.19775223  0.36822767  0.35816648    -0.83300
O1986       O  0.10218649  0.34918044  0.44397750    -0.78900
O1987       O  0.19149287  0.33118380  0.39143290    -0.90600
O1988       O  0.11484997  0.25094605  0.36284857    -0.76500
O1989       O  0.11001361  0.32409197  0.39283688    -0.86000
O1990       O  0.14549121  0.32564168  0.35875433    -0.85700
O1991       O  0.13433661  0.39246188  0.41653188    -0.72500
O1992       O  0.16605773  0.39328398  0.38472652    -0.84600
Zr1993     Zr  0.10447281  0.45118823  0.35338679     2.26400
Zr1994     Zr  0.09396559  0.38815465  0.40866439     2.06300
Zr1995     Zr  0.16074344  0.39136628  0.34395416     2.10000
Zr1996     Zr  0.10521625  0.32293670  0.35208133     1.78800
O1997       O  0.19000670  0.44161551  0.33122833    -0.93400
O1998       O  0.06889582  0.28976299  0.36250225    -0.41200
O1999       O  0.12059031  0.38768162  0.33681171    -0.77900
O2000       O  0.08787682  0.38565390  0.36774285    -0.96600
O2001       O  0.10966002  0.45360541  0.39412911    -0.89900
O2002       O  0.14483020  0.45552701  0.35980044    -0.92700
C2003       C  0.12878958  0.23277244  0.37680261     1.01100
C2004       C  0.20466824  0.34711456  0.37583419     1.14000
C2005       C  0.11955117  0.32861243  0.45190682     1.04800
O2006       O  0.06230113  0.33888293  0.41501416    -0.94900
O2007       O  0.05918654  0.42743814  0.39953334    -0.90600
O2008       O  0.06434630  0.45984858  0.36488358    -0.83700
C2009       C  0.05192844  0.44960977  0.38232756     1.11400
O2010       O  0.17856326  0.45079919  0.43116003    -0.96800
Zr2011     Zr  0.14990732  0.45650157  0.40061578     1.88900
O2012       O  0.11285840  0.52623653  0.36254180    -0.73500
O2013       O  0.08441569  0.43474339  0.44090824    -0.52700
O2014       O  0.13755187  0.48919267  0.43664044    -0.97400
O2015       O  0.18678093  0.48752364  0.39011444    -0.54600
O2016       O  0.13932662  0.52845872  0.39109201    -0.74000
C2017       C  0.12578881  0.54663540  0.37676156     0.98400
O2018       O  0.08176483  0.48940896  0.32477384    -0.62800
O2019       O  0.17265439  0.33871271  0.31541290    -0.57600
O2020       O  0.11371446  0.45317565  0.31216216    -0.94300
O2021       O  0.14862222  0.42237676  0.30755906    -0.92700
O2022       O  0.11733639  0.28989029  0.31609021    -0.93100
O2023       O  0.07702328  0.32882061  0.32119849    -0.91900
C2024       C  0.13089455  0.44198299  0.29967921     1.17200
H2025       H  0.15332587  0.30111162  0.35216536     0.33100
H2026       H  0.07184732  0.38318155  0.36399241     0.44000
H2027       H  0.15138654  0.48050123  0.35248121     0.37500
H2028       H  0.13735528  0.39486385  0.43259132     0.34000
H2029       H  0.06759176  0.26454255  0.35225722     0.25800
H2030       H  0.07151711  0.42028342  0.44876167     0.31700
H2031       H  0.12172521  0.49918872  0.43360959     0.37600
H2032       H  0.11075633  0.26070760  0.31649701     0.32100
H2033       H  0.15931741  0.33579332  0.30494694     0.31000
H2034       H  0.19845903  0.42636397  0.31894003     0.32700
H2035       H  0.18344268  0.51743668  0.38559842     0.31600
H2036       H  0.07720312  0.35946756  0.31685284     0.35600
H2037       H  0.06924437  0.46949168  0.32061386     0.28300
H2038       H  0.16939018  0.26490442  0.43009384     0.32600
H2039       H  0.18268091  0.48058724  0.43523732     0.35400
H2040       H  0.18438973  0.35350978  0.30603458     0.28000
H2041       H  0.07425760  0.51318703  0.33311570     0.40900
H2042       H  0.05267924  0.34133531  0.40098694     0.31000
H2043       H  0.07154704  0.27745020  0.37802227     0.38600
H2044       H  0.19095106  0.47318565  0.37550821     0.30400
H2045       H  0.09746115  0.43218839  0.45177331     0.30500
H2046       H  0.18154808  0.30812114  0.43644544     0.30800
Zr2047     Zr  0.15107802  0.82871765  0.40021175     2.17500
O2048       O  0.17856655  0.78587556  0.42201023    -0.51600
O2049       O  0.14266318  0.75357163  0.39098503    -0.74800
O2050       O  0.14076173  0.82177844  0.44103840    -0.81600
O2051       O  0.19614852  0.86474475  0.35722094    -0.83300
O2052       O  0.10511639  0.84964048  0.44593177    -0.78900
O2053       O  0.19254080  0.83328823  0.39222129    -0.90600
O2054       O  0.11371363  0.75092021  0.36502684    -0.76500
O2055       O  0.11057435  0.82412394  0.39440572    -0.86000
O2056       O  0.14505665  0.82558458  0.35940855    -0.85700
O2057       O  0.13526944  0.89289838  0.41728343    -0.72500
O2058       O  0.16619679  0.89402119  0.38471243    -0.84600
Zr2059     Zr  0.10335205  0.95059411  0.35469250     2.26400
Zr2060     Zr  0.09473382  0.88801474  0.41073057     2.06300
Zr2061     Zr  0.15958835  0.89128397  0.34419681     2.10000
Zr2062     Zr  0.10466942  0.82264269  0.35367893     1.78800
O2063       O  0.18908550  0.94187638  0.33248541    -0.93400
O2064       O  0.06800790  0.78937773  0.36273941    -0.41200
O2065       O  0.11932975  0.88730225  0.33759950    -0.77900
O2066       O  0.08765486  0.88481614  0.36993689    -0.96600
O2067       O  0.10947252  0.95370566  0.39536027    -0.89900
O2068       O  0.14377194  0.95522315  0.36026992    -0.92700
C2069       C  0.12827177  0.73292217  0.37836550     1.01100
C2070       C  0.20472343  0.84691386  0.37521375     1.14000
C2071       C  0.12322449  0.83072004  0.45353674     1.04800
O2072       O  0.06302458  0.84034917  0.41983595    -0.94900
O2073       O  0.05909633  0.92493998  0.40160451    -0.90600
O2074       O  0.06304481  0.95639387  0.36647547    -0.83700
C2075       C  0.05107221  0.94570657  0.38420072     1.11400
O2076       O  0.17951664  0.95180618  0.43041923    -0.96800
Zr2077     Zr  0.14984309  0.95708405  0.40086619     1.88900
O2078       O  0.11172141  0.02588501  0.36335696    -0.73500
O2079       O  0.08661082  0.93598832  0.44277806    -0.52700
O2080       O  0.13695203  0.98844063  0.43706920    -0.97400
O2081       O  0.18579471  0.99150523  0.39022946    -0.54600
O2082       O  0.13896870  0.02874233  0.39113194    -0.74000
C2083       C  0.12510758  0.04660260  0.37700373     0.98400
O2084       O  0.08015698  0.99023083  0.32688733    -0.62800
O2085       O  0.17066726  0.83975287  0.31475647    -0.57600
O2086       O  0.11331256  0.95328641  0.31355767    -0.94300
O2087       O  0.14863698  0.92459906  0.30820259    -0.92700
O2088       O  0.11702865  0.78740025  0.31839534    -0.93100
O2089       O  0.07672695  0.83089220  0.32269804    -0.91900
C2090       C  0.13069277  0.94396592  0.30083216     1.17200
H2091       H  0.15274305  0.80127549  0.35266823     0.33100
H2092       H  0.07157440  0.88134117  0.36656418     0.44000
H2093       H  0.15002392  0.97998374  0.35272509     0.37500
H2094       H  0.13885304  0.89616129  0.43323214     0.34000
H2095       H  0.06717810  0.76398962  0.35256785     0.25800
H2096       H  0.07453536  0.92122570  0.45173625     0.31700
H2097       H  0.12234737  0.00299536  0.43327162     0.37600
H2098       H  0.10766881  0.76103073  0.31754555     0.32100
H2099       H  0.15692045  0.83672921  0.30485118     0.31000
H2100       H  0.19769021  0.92703423  0.32015802     0.32700
H2101       H  0.18179414  0.01173097  0.37769807     0.31600
H2102       H  0.07523850  0.86221108  0.32058015     0.35600
H2103       H  0.06845267  0.96966734  0.32141877     0.28300
H2104       H  0.16947805  0.76373750  0.43006788     0.32600
H2105       H  0.18198803  0.98139601  0.43598360     0.35400
H2106       H  0.18187757  0.85514382  0.30500966     0.28000
H2107       H  0.07159827  0.01189280  0.33585602     0.40900
H2108       H  0.05427490  0.83782421  0.40524924     0.31000
H2109       H  0.07004660  0.77737399  0.37842394     0.38600
H2110       H  0.19474619  0.96876116  0.38249531     0.30400
H2111       H  0.10039073  0.93457751  0.45274321     0.30500
H2112       H  0.18420924  0.80487505  0.43442850     0.30800
C2113       C  0.14410105  0.61550375  0.38796912    -0.12500
C2114       C  0.12582733  0.59428703  0.37691336     0.04500
C2115       C  0.10828638  0.61924334  0.36686996    -0.07800
C2116       C  0.10949733  0.66391502  0.36786036    -0.08600
C2117       C  0.12790679  0.68519270  0.37872379    -0.03100
C2118       C  0.14527455  0.66015034  0.38904796     0.03700
N2119       N  0.16440714  0.67905654  0.40056211     0.66200
H2120       H  0.15790252  0.59737683  0.39582407     0.15100
H2121       H  0.09565525  0.68197999  0.36004047     0.14800
N2122       N  0.08881965  0.60015761  0.35600687     0.73900
O2123       O  0.16472613  0.67964594  0.42232446    -0.39500
O2124       O  0.18294226  0.68384555  0.38969438    -0.39500
O2125       O  0.07050000  0.59608669  0.36732468    -0.40200
O2126       O  0.08808878  0.59819524  0.33427831    -0.40200
C2127       C  0.10970778  0.16395301  0.36667896    -0.12500
C2128       C  0.12833997  0.18509941  0.37719295     0.04500
C2129       C  0.14562304  0.16001719  0.38763290    -0.07800
C2130       C  0.14406642  0.11539678  0.38711644    -0.08600
C2131       C  0.12546186  0.09424996  0.37658555    -0.03100
C2132       C  0.10806979  0.11928926  0.36633129     0.03700
N2133       N  0.08823194  0.10035654  0.35609829     0.66200
H2134       H  0.09592872  0.18214994  0.35883246     0.15100
H2135       H  0.15783054  0.09723547  0.39501475     0.14800
N2136       N  0.16506571  0.17884490  0.39866738     0.73900
O2137       O  0.07020574  0.09690054  0.36793882    -0.39500
O2138       O  0.08687974  0.09812198  0.33440614    -0.39500
O2139       O  0.16621291  0.17848514  0.42040760    -0.40200
O2140       O  0.18313901  0.18458806  0.38716524    -0.40200
C2141       C  0.11203079  0.46647019  0.23768182    -0.12500
C2142       C  0.13330198  0.47053481  0.22660314     0.04500
C2143       C  0.15348613  0.46449247  0.23974128    -0.07800
C2144       C  0.15204241  0.45545484  0.26330511    -0.08600
C2145       C  0.13082386  0.45209169  0.27456104    -0.03100
C2146       C  0.11057864  0.45751781  0.26136336     0.03700
N2147       N  0.08836562  0.45339923  0.27140170     0.66200
H2148       H  0.09630818  0.47116360  0.22801374     0.15100
H2149       H  0.16786115  0.45122678  0.27287944     0.14800
N2150       N  0.17568849  0.46619911  0.22944558     0.73900
O2151       O  0.07690242  0.48683245  0.27533330    -0.39500
O2152       O  0.07800550  0.41811302  0.26971425    -0.39500
O2153       O  0.18829334  0.49824017  0.23321345    -0.40200
O2154       O  0.18470511  0.43198121  0.22233125    -0.40200
C2155       C  0.11130128  0.82194363  0.13915951    -0.12500
C2156       C  0.12863330  0.84336712  0.12710978     0.04500
C2157       C  0.14580985  0.81852021  0.11606197    -0.07800
C2158       C  0.14498891  0.77383004  0.11703272    -0.08600
C2159       C  0.12760679  0.75239841  0.12903402    -0.03100
C2160       C  0.11061899  0.77727661  0.14032984     0.03700
N2161       N  0.09229678  0.75818775  0.15298534     0.66200
H2162       H  0.09794935  0.83990657  0.14779093     0.15100
H2163       H  0.15838054  0.75586712  0.10846258     0.14800
N2164       N  0.16468427  0.83765789  0.10425170     0.73900
O2165       O  0.09401941  0.75509160  0.17462756    -0.39500
O2166       O  0.07272045  0.75593254  0.14377983    -0.39500
O2167       O  0.18383657  0.83980822  0.11433524    -0.40200
O2168       O  0.16396290  0.84075582  0.08255778    -0.40200
C2169       C  0.10700234  0.32200080  0.13052023    -0.12500
C2170       C  0.12800135  0.34313855  0.12771475     0.04500
C2171       C  0.14804245  0.31842041  0.12438728    -0.07800
C2172       C  0.14673331  0.27373173  0.12394585    -0.08600
C2173       C  0.12576314  0.25254124  0.12674165    -0.03100
C2174       C  0.10564834  0.27726426  0.12983871     0.03700
N2175       N  0.08353509  0.25779004  0.13110450     0.66200
H2176       H  0.09136974  0.34034532  0.13257631     0.15100
H2177       H  0.16239788  0.25548783  0.12188765     0.14800
N2178       N  0.17006491  0.33795048  0.12231268     0.73900
O2179       O  0.07354665  0.25553349  0.15034775    -0.39500
O2180       O  0.07191916  0.25361342  0.11285637    -0.39500
O2181       O  0.18276454  0.34050825  0.13990324    -0.40200
O2182       O  0.17883368  0.34212436  0.10256265    -0.40200
C2183       C  0.14856815  0.97242188  0.23957911    -0.12500
C2184       C  0.12740801  0.97515281  0.22807210     0.04500
C2185       C  0.10717652  0.96725611  0.24081815    -0.07800
C2186       C  0.10858386  0.95767609  0.26448953    -0.08600
C2187       C  0.12983850  0.95526282  0.27590303    -0.03100
C2188       C  0.14999501  0.96272116  0.26303687     0.03700
N2189       N  0.17215556  0.96232899  0.27357185     0.66200
H2190       H  0.16439686  0.97816395  0.23032925     0.15100
H2191       H  0.09289563  0.95176620  0.27394166     0.14800
N2192       N  0.08504064  0.96989797  0.23036279     0.73900
O2193       O  0.18472264  0.92975886  0.27124686    -0.39500
O2194       O  0.18117747  0.99735950  0.27943283    -0.39500
O2195       O  0.07508740  0.93582015  0.22440270    -0.40200
O2196       O  0.07330931  0.00344489  0.23304242    -0.40200
C2197       C  0.98797051  0.99606836  0.11934481    -0.12500
C2198       C  0.98194716  0.95383755  0.11404053     0.04500
C2199       C  0.99947269  0.92407189  0.10871749    -0.07800
C2200       C  0.02247554  0.93671448  0.10963149    -0.08600
C2201       C  0.02834157  0.97891180  0.11492320    -0.03100
C2202       C  0.01089819  0.00897767  0.11941053     0.03700
N2203       N  0.01615637  0.05260747  0.12443143     0.66200
H2204       H  0.97476674  0.01935520  0.12325529     0.15100
H2205       H  0.03581764  0.91351861  0.10604548     0.14800
N2206       N  0.99438665  0.88061806  0.10309084     0.73900
O2207       O  0.01540410  0.07974555  0.10832226    -0.39500
O2208       O  0.01524124  0.06537671  0.14504912    -0.39500
O2209       O  0.99503615  0.86912348  0.08224027    -0.40200
O2210       O  0.99563949  0.85253059  0.11869304    -0.40200
C2211       C  0.86675521  0.61312502  0.11357999    -0.12500
C2212       C  0.88513472  0.59190560  0.12451106     0.04500
C2213       C  0.90203639  0.61702514  0.13554421    -0.07800
C2214       C  0.90003235  0.66166414  0.13565931    -0.08600
C2215       C  0.88153728  0.68283454  0.12488310    -0.03100
C2216       C  0.86485163  0.65774009  0.11354115     0.03700
N2217       N  0.84571350  0.67652082  0.10193393     0.66200
H2218       H  0.85341891  0.59503467  0.10496929     0.15100
H2219       H  0.91338971  0.67981904  0.14420023     0.14800
N2220       N  0.92167884  0.59830459  0.14631108     0.73900
O2221       O  0.84626931  0.67998221  0.08025345    -0.39500
O2222       O  0.82661480  0.67787784  0.11207193    -0.39500
O2223       O  0.94044925  0.59804397  0.13554034    -0.40200
O2224       O  0.92188656  0.59397943  0.16795509    -0.40200
C2225       C  0.87572925  0.11327411  0.10837514    -0.12500
C2226       C  0.88234268  0.09216111  0.12877006     0.04500
C2227       C  0.88765298  0.11689075  0.14840424    -0.07800
C2228       C  0.88665027  0.16161187  0.14709185    -0.08600
C2229       C  0.88026724  0.18273342  0.12656871    -0.03100
C2230       C  0.87461786  0.15787286  0.10708709     0.03700
N2231       N  0.86859672  0.17705326  0.08554054     0.66200
H2232       H  0.87166881  0.09499503  0.09302009     0.15100
H2233       H  0.89068214  0.17993264  0.16243610     0.14800
N2234       N  0.89299989  0.09744148  0.17008039     0.73900
O2235       O  0.88396476  0.18241410  0.07053515    -0.39500
O2236       O  0.84785574  0.17715654  0.07934428    -0.39500
O2237       O  0.91355853  0.09675834  0.17686225    -0.40200
O2238       O  0.87718823  0.09214367  0.18462301    -0.40200
C2239       C  0.99189596  0.47405847  0.09734160    -0.12500
C2240       C  0.98309823  0.45222228  0.11637770     0.04500
C2241       C  0.99787854  0.43988620  0.13439878    -0.07800
C2242       C  0.02109992  0.45032292  0.13333675    -0.08600
C2243       C  0.03008063  0.47348310  0.11462214    -0.03100
C2244       C  0.01505665  0.48520526  0.09632070     0.03700
N2245       N  0.02267216  0.50896937  0.07670933     0.66200
H2246       H  0.98059535  0.48323034  0.08330409     0.15100
H2247       H  0.03202159  0.44063811  0.14754640     0.14800
N2248       N  0.98978114  0.41543402  0.15354676     0.73900
O2249       O  0.02802171  0.48912197  0.05855982    -0.39500
O2250       O  0.01804134  0.54834953  0.07546643    -0.39500
O2251       O  0.99234783  0.37534928  0.15339627    -0.40200
O2252       O  0.98595022  0.43409122  0.17243341    -0.40200
C2253       C  0.99128311  0.47973799  0.36357038    -0.12500
C2254       C  0.97998917  0.48287936  0.38485935     0.04500
C2255       C  0.99278952  0.47641174  0.40527820    -0.07800
C2256       C  0.01615462  0.46625762  0.40396133    -0.08600
C2257       C  0.02742800  0.46283490  0.38262023    -0.03100
C2258       C  0.01464411  0.47012860  0.36222416     0.03700
N2259       N  0.02472370  0.46688386  0.33986958     0.66200
H2260       H  0.98195382  0.48517122  0.34764865     0.15100
H2261       H  0.02552356  0.46094543  0.41987441     0.14800
N2262       N  0.98232532  0.47853646  0.42749172     0.73900
O2263       O  0.02380235  0.43159212  0.32935882    -0.39500
O2264       O  0.02807902  0.50068307  0.32844352    -0.39500
O2265       O  0.97714343  0.44419281  0.43767565    -0.40200
O2266       O  0.98408295  0.51252792  0.43907974    -0.40200
C2267       C  0.89962840  0.46318180  0.23582413    -0.12500
C2268       C  0.87872011  0.46360274  0.22374983     0.04500
C2269       C  0.85867882  0.47566747  0.23569464    -0.07800
C2270       C  0.85980023  0.48601340  0.25912255    -0.08600
C2271       C  0.88060169  0.48504030  0.27144398    -0.03100
C2272       C  0.90077780  0.47357975  0.25937311     0.03700
N2273       N  0.92267252  0.47292551  0.27040774     0.66200
H2274       H  0.91525109  0.45404961  0.22702437     0.15100
H2275       H  0.84401621  0.49487819  0.26770064     0.14800
N2276       N  0.83706118  0.47914162  0.22422577     0.73900
O2277       O  0.93161191  0.43730426  0.27536473    -0.39500
O2278       O  0.93533939  0.50552380  0.26898091    -0.39500
O2279       O  0.82212755  0.45060390  0.22748151    -0.40200
O2280       O  0.83094205  0.51499255  0.21629410    -0.40200
C2281       C  0.86136712  0.82527561  0.38962604    -0.12500
C2282       C  0.87550670  0.84672184  0.37364973     0.04500
C2283       C  0.88818120  0.82185076  0.35786429    -0.07800
C2284       C  0.88719038  0.77725548  0.35893822    -0.08600
C2285       C  0.87360626  0.75565827  0.37531819    -0.03100
C2286       C  0.86018096  0.78049518  0.39053132     0.03700
N2287       N  0.84536066  0.76130561  0.40716548     0.66200
H2288       H  0.85116848  0.84326715  0.40183584     0.15100
H2289       H  0.89730687  0.75950746  0.34655666     0.14800
N2290       N  0.90193682  0.84089296  0.34027789     0.73900
O2291       O  0.85220472  0.75761468  0.42773469    -0.39500
O2292       O  0.82414331  0.75964170  0.40299622    -0.39500
O2293       O  0.92337760  0.84246058  0.34300773    -0.40200
O2294       O  0.89370720  0.84492714  0.32024227    -0.40200
C2295       C  0.86520329  0.32528634  0.38147354    -0.12500
C2296       C  0.88417179  0.34653017  0.37175054     0.04500
C2297       C  0.90252067  0.32154776  0.36340412    -0.07800
C2298       C  0.90139242  0.27679088  0.36476418    -0.08600
C2299       C  0.88241255  0.25565452  0.37462106    -0.03100
C2300       C  0.86424639  0.28078309  0.38322212     0.03700
N2301       N  0.84464928  0.26212545  0.39398594     0.66200
H2302       H  0.85074948  0.34330242  0.38802976     0.15100
H2303       H  0.91579650  0.25855317  0.35828117     0.14800
N2304       N  0.92285125  0.34068437  0.35439775     0.73900
O2305       O  0.84324988  0.26277750  0.41570138    -0.39500
O2306       O  0.82671044  0.25628727  0.38221261    -0.39500
O2307       O  0.94039581  0.34300570  0.36710316    -0.40200
O2308       O  0.92511903  0.34414746  0.33283612    -0.40200
C2309       C  0.98940240  0.96856913  0.36557762    -0.12500
C2310       C  0.97832147  0.97306481  0.38691049     0.04500
C2311       C  0.99144321  0.96825285  0.40730622    -0.07800
C2312       C  0.01503435  0.96009414  0.40591062    -0.08600
C2313       C  0.02618157  0.95630028  0.38453714    -0.03100
C2314       C  0.01293195  0.96024205  0.36417302     0.03700
N2315       N  0.02271086  0.95435350  0.34184201     0.66200
H2316       H  0.97979983  0.97210079  0.34966505     0.15100
H2317       H  0.02467642  0.95653640  0.42180040     0.14800
N2318       N  0.98107941  0.96950762  0.42960019     0.73900
O2319       O  0.02257791  0.91744006  0.33304868    -0.39500
O2320       O  0.02501725  0.98642938  0.32882143    -0.39500
O2321       O  0.97718097  0.93470290  0.43992050    -0.40200
O2322       O  0.98203688  0.00363564  0.44116409    -0.40200
C2323       C  0.89872064  0.98617307  0.26297291    -0.12500
C2324       C  0.87779608  0.98299612  0.27475639     0.04500
C2325       C  0.85809421  0.97051911  0.26236218    -0.07800
C2326       C  0.85967581  0.96090595  0.23890277    -0.08600
C2327       C  0.88059513  0.96354363  0.22691371    -0.03100
C2328       C  0.90026276  0.97727233  0.23925354     0.03700
N2329       N  0.92190030  0.98275276  0.22819398     0.66200
H2330       H  0.91393401  0.99663470  0.27212429     0.15100
H2331       H  0.84417666  0.95091851  0.23010500     0.14800
N2332       N  0.83640870  0.96564059  0.27346003     0.73900
O2333       O  0.92737366  0.01944965  0.22097852    -0.39500
O2334       O  0.93740426  0.95521408  0.23140276    -0.39500
O2335       O  0.82154139  0.99469297  0.27124071    -0.40200
O2336       O  0.83018720  0.92885246  0.27986824    -0.40200
C2337       C  0.73945041  0.59918449  0.35020909    -0.12500
C2338       C  0.72835805  0.59396814  0.37154602     0.04500
C2339       C  0.74195747  0.58846005  0.39156031    -0.07800
C2340       C  0.76594729  0.58903081  0.38980618    -0.08600
C2341       C  0.77686288  0.59466070  0.36841922    -0.03100
C2342       C  0.76325423  0.59983866  0.34847148     0.03700
N2343       N  0.77317028  0.60775502  0.32635358     0.66200
H2344       H  0.72958565  0.60348375  0.33450939     0.15100
H2345       H  0.77608920  0.58439075  0.40529665     0.14800
N2346       N  0.73193843  0.58305931  0.41382766     0.73900
O2347       O  0.77492283  0.57727153  0.31221436    -0.39500
O2348       O  0.77400589  0.64569741  0.31894373    -0.39500
O2349       O  0.73068670  0.54592736  0.42229069    -0.40200
O2350       O  0.73047608  0.61494105  0.42707747    -0.40200
C2351       C  0.61534900  0.86648183  0.35859054    -0.12500
C2352       C  0.62499349  0.84570848  0.37774412     0.04500
C2353       C  0.63605788  0.87105632  0.39478129    -0.07800
C2354       C  0.63725596  0.91551902  0.39225027    -0.08600
C2355       C  0.62762528  0.93625425  0.37311420    -0.03100
C2356       C  0.61658761  0.91097576  0.35604093     0.03700
N2357       N  0.60707722  0.92941580  0.33557212     0.66200
H2358       H  0.60711200  0.84804809  0.34509751     0.15100
H2359       H  0.64551719  0.93396303  0.40572762     0.14800
N2360       N  0.64593106  0.85266928  0.41507545     0.73900
O2361       O  0.58587652  0.93729035  0.33481910    -0.39500
O2362       O  0.61809056  0.92653042  0.31692802    -0.39500
O2363       O  0.66741417  0.84850833  0.41626840    -0.40200
O2364       O  0.63434601  0.85200347  0.43342535    -0.40200
C2365       C  0.61599067  0.36646375  0.35846535    -0.12500
C2366       C  0.62614177  0.34557100  0.37731581     0.04500
C2367       C  0.63686654  0.37082818  0.39458342    -0.07800
C2368       C  0.63702345  0.41543370  0.39270334    -0.08600
C2369       C  0.62682734  0.43628535  0.37390229    -0.03100
C2370       C  0.61636713  0.41106910  0.35646589     0.03700
N2371       N  0.60681967  0.42974529  0.33607491     0.66200
H2372       H  0.60813111  0.34806246  0.34473291     0.15100
H2373       H  0.64495764  0.43384578  0.40639009     0.14800
N2374       N  0.64740671  0.35216900  0.41446088     0.73900
O2375       O  0.61915972  0.43292952  0.31830744    -0.39500
O2376       O  0.58532328  0.43208977  0.33399908    -0.39500
O2377       O  0.66899226  0.35149217  0.41582890    -0.40200
O2378       O  0.63573502  0.34765857  0.43259591    -0.40200
C2379       C  0.76825954  0.08322982  0.38875874    -0.12500
C2380       C  0.77965959  0.10696558  0.37177060     0.04500
C2381       C  0.76680716  0.12936307  0.35521632    -0.07800
C2382       C  0.74295629  0.12677781  0.35548463    -0.08600
C2383       C  0.73118372  0.10187868  0.37199711    -0.03100
C2384       C  0.74426631  0.08031277  0.38902063     0.03700
N2385       N  0.73379749  0.05431260  0.40628290     0.66200
H2386       H  0.77810109  0.06533667  0.40139272     0.15100
H2387       H  0.73369606  0.14487001  0.34252355     0.14800
N2388       N  0.77763037  0.15596871  0.33839906     0.73900
O2389       O  0.73314816  0.01432577  0.40338156    -0.39500
O2390       O  0.73156508  0.06917247  0.42638193    -0.39500
O2391       O  0.77876288  0.14332390  0.31777076    -0.40200
O2392       O  0.78020932  0.19524509  0.34269864    -0.40200
C2393       C  0.74369062  0.80353383  0.13405190    -0.12500
C2394       C  0.73141276  0.84182073  0.13076868     0.04500
C2395       C  0.74356207  0.88011169  0.12701041    -0.07800
C2396       C  0.76754220  0.87975734  0.12759746    -0.08600
C2397       C  0.77970739  0.84164310  0.13130791    -0.03100
C2398       C  0.76766136  0.80308185  0.13413240     0.03700
N2399       N  0.77940007  0.76366025  0.13818640     0.66200
H2400       H  0.73458750  0.77373051  0.13677236     0.15100
H2401       H  0.77675085  0.90957792  0.12535617     0.14800
N2402       N  0.73194204  0.91989513  0.12381406     0.73900
O2403       O  0.78198203  0.75067262  0.15864572    -0.39500
O2404       O  0.78178295  0.73756291  0.12177600    -0.39500
O2405       O  0.72926984  0.94437720  0.14088957    -0.40200
O2406       O  0.72998202  0.93496703  0.10370651    -0.40200
C2407       C  0.64660411  0.71930766  0.26580219    -0.12500
C2408       C  0.62540718  0.70967285  0.27586778     0.04500
C2409       C  0.60567962  0.70933890  0.26165604    -0.07800
C2410       C  0.60765912  0.71855602  0.23795877    -0.08600
C2411       C  0.62902149  0.72811747  0.22792693    -0.03100
C2412       C  0.64867711  0.72809381  0.24232608     0.03700
N2413       N  0.67116983  0.73556993  0.23350151     0.66200
H2414       H  0.66202480  0.71969366  0.27627459     0.15100
H2415       H  0.59232018  0.71822946  0.22739166     0.14800
N2416       N  0.58374876  0.69772862  0.27056855     0.73900
O2417       O  0.68004637  0.77207257  0.23600523    -0.39500
O2418       O  0.68403166  0.70394500  0.22958420    -0.39500
O2419       O  0.56884959  0.72647644  0.27348733    -0.40200
O2420       O  0.57742640  0.65920146  0.26930647    -0.40200
C2421       C  0.62975795  0.52383568  0.14593634    -0.12500
C2422       C  0.63307248  0.50237684  0.12487627     0.04500
C2423       C  0.63514882  0.52691284  0.10452538    -0.07800
C2424       C  0.63362413  0.57166908  0.10563923    -0.08600
C2425       C  0.63002962  0.59301593  0.12669396    -0.03100
C2426       C  0.62833144  0.56851867  0.14705070     0.03700
N2427       N  0.62648389  0.58833880  0.16915893     0.66200
H2428       H  0.62845639  0.50572541  0.16183735     0.15100
H2429       H  0.63499337  0.58988581  0.08977855     0.14800
N2430       N  0.63771071  0.50717476  0.08246454     0.73900
O2431       O  0.60711241  0.59057147  0.17870531    -0.39500
O2432       O  0.64429931  0.59267976  0.18131372    -0.39500
O2433       O  0.62024711  0.50240133  0.06984907    -0.40200
O2434       O  0.65731274  0.50600053  0.07334394    -0.40200
C2435       C  0.63158453  0.07147878  0.10626394    -0.12500
C2436       C  0.62116544  0.09331523  0.12476395     0.04500
C2437       C  0.61203595  0.06882325  0.14305390    -0.07800
C2438       C  0.61419661  0.02419063  0.14282244    -0.08600
C2439       C  0.62526000  0.00254201  0.12466357    -0.03100
C2440       C  0.63370715  0.02689640  0.10602341     0.03700
N2441       N  0.64405515  0.00723136  0.08639587     0.66200
H2442       H  0.63832765  0.08906014  0.09166221     0.15100
H2443       H  0.60741344  0.00644717  0.15735013     0.14800
N2444       N  0.60099780  0.08835837  0.16233305     0.73900
O2445       O  0.63168483  0.99801767  0.06922353    -0.39500
O2446       O  0.66545558  0.01018761  0.08376700    -0.39500
O2447       O  0.57951646  0.08540877  0.16423166    -0.40200
O2448       O  0.61278044  0.09813585  0.17982503    -0.40200
C2449       C  0.74168562  0.37249955  0.12299649    -0.12500
C2450       C  0.73193070  0.33168322  0.12469415     0.04500
C2451       C  0.74658963  0.29557845  0.12568057    -0.07800
C2452       C  0.77045819  0.30103039  0.12515697    -0.08600
C2453       C  0.78011270  0.34198336  0.12442619    -0.03100
C2454       C  0.76551721  0.37795458  0.12324909     0.03700
N2455       N  0.77462499  0.42030967  0.12217918     0.66200
H2456       H  0.73073274  0.40049483  0.12229717     0.15100
H2457       H  0.78149861  0.27317844  0.12613240     0.14800
N2458       N  0.73761639  0.25313256  0.12693872     0.73900
O2459       O  0.77674258  0.43825650  0.10279766    -0.39500
O2460       O  0.77506604  0.44281809  0.14022828    -0.39500
O2461       O  0.73695569  0.23075897  0.10884520    -0.40200
O2462       O  0.73661980  0.23474363  0.14629841    -0.40200
C2463       C  0.64874241  0.23065347  0.23869287    -0.12500
C2464       C  0.62766465  0.23272360  0.22697578     0.04500
C2465       C  0.60734418  0.22649867  0.23994427    -0.07800
C2466       C  0.60862387  0.21878966  0.26385325    -0.08600
C2467       C  0.62980721  0.21614513  0.27534099    -0.03100
C2468       C  0.65004029  0.22229640  0.26233636     0.03700
N2469       N  0.67224276  0.22056136  0.27275153     0.66200
H2470       H  0.66466472  0.23508959  0.22940455     0.15100
H2471       H  0.59289000  0.21356924  0.27334573     0.14800
N2472       N  0.58523547  0.22773813  0.22937081     0.73900
O2473       O  0.68411838  0.18707458  0.27049847    -0.39500
O2474       O  0.68205891  0.25506298  0.27821272    -0.39500
O2475       O  0.57549454  0.19288990  0.22443298    -0.40200
O2476       O  0.57323154  0.26111737  0.23134862    -0.40200
C2477       C  0.26733744  0.83164504  0.39467430    -0.12500
C2478       C  0.27901940  0.84815015  0.37547071     0.04500
C2479       C  0.26624004  0.86337974  0.35658010    -0.07800
C2480       C  0.24240152  0.86165449  0.35701723    -0.08600
C2481       C  0.23034295  0.84485982  0.37602995    -0.03100
C2482       C  0.24323775  0.82954392  0.39509651     0.03700
N2483       N  0.23244496  0.81084211  0.41475248     0.66200
H2484       H  0.27699288  0.81877904  0.40909628     0.15100
H2485       H  0.23337626  0.87414213  0.34211042     0.14800
N2486       N  0.27715316  0.88188429  0.33691411     0.73900
O2487       O  0.23055590  0.77066928  0.41580829    -0.39500
O2488       O  0.23077216  0.83247364  0.43303667    -0.39500
O2489       O  0.27799574  0.86083745  0.31837298    -0.40200
O2490       O  0.28001947  0.92187519  0.33626406    -0.40200
C2491       C  0.51857474  0.74519901  0.38553212    -0.12500
C2492       C  0.52527464  0.70230404  0.38646833     0.04500
C2493       C  0.50845784  0.66980821  0.38692708    -0.07800
C2494       C  0.48526027  0.68083980  0.38688854    -0.08600
C2495       C  0.47864620  0.72377396  0.38672139    -0.03100
C2496       C  0.49541352  0.75620562  0.38582777     0.03700
N2497       N  0.48919170  0.80035141  0.38438695     0.66200
H2498       H  0.53138668  0.77026545  0.38476720     0.15100
H2499       H  0.47238523  0.65584874  0.38710614     0.14800
N2500       N  0.51458951  0.62557012  0.38633600     0.73900
O2501       O  0.48976808  0.82296555  0.40238803    -0.39500
O2502       O  0.48903465  0.81850926  0.36493410    -0.39500
O2503       O  0.51322835  0.60372743  0.40459469    -0.40200
O2504       O  0.51521222  0.60657982  0.36714827    -0.40200
C2505       C  0.39570582  0.52078450  0.36987993    -0.12500
C2506       C  0.37525882  0.49944036  0.37559662     0.04500
C2507       C  0.35561345  0.52416377  0.38048634    -0.07800
C2508       C  0.35701167  0.56896282  0.38024365    -0.08600
C2509       C  0.37761376  0.59023854  0.37493122    -0.03100
C2510       C  0.39706155  0.56542454  0.36941943     0.03700
N2511       N  0.41864207  0.58463924  0.36418894     0.66200
H2512       H  0.41110796  0.50270028  0.36613308     0.15100
H2513       H  0.34168576  0.58723895  0.38402257     0.14800
N2514       N  0.33388350  0.50468554  0.38471986     0.73900
O2515       O  0.43325416  0.58896272  0.38009444    -0.39500
O2516       O  0.42521318  0.58581046  0.34347572    -0.39500
O2517       O  0.32668078  0.50205052  0.40517540    -0.40200
O2518       O  0.31978661  0.50127720  0.36828297    -0.40200
C2519       C  0.39418010  0.06946288  0.36461370    -0.12500
C2520       C  0.38523272  0.09034433  0.38402436     0.04500
C2521       C  0.37572430  0.06490979  0.40194240    -0.07800
C2522       C  0.37490629  0.02029922  0.39979669    -0.08600
C2523       C  0.38359130  0.99957716  0.38026773    -0.03100
C2524       C  0.39346334  0.02484710  0.36253945     0.03700
N2525       N  0.40210048  0.00616251  0.34181220     0.66200
H2526       H  0.40134948  0.08787644  0.35052280     0.15100
H2527       H  0.36771812  0.00171928  0.41382103     0.14800
N2528       N  0.36722059  0.08338593  0.42276985     0.73900
O2529       O  0.38922204  0.00405363  0.32433626    -0.39500
O2530       O  0.42347679  0.00240705  0.33924475    -0.39500
O2531       O  0.34585402  0.08689574  0.42550340    -0.40200
O2532       O  0.38018516  0.08501513  0.44019794    -0.40200
C2533       C  0.26772030  0.37019419  0.38463425    -0.12500
C2534       C  0.27757309  0.33145413  0.37766034     0.04500
C2535       C  0.26303668  0.29699122  0.37145817    -0.07800
C2536       C  0.23921569  0.30213769  0.37212926    -0.08600
C2537       C  0.22952705  0.34135215  0.37828771    -0.03100
C2538       C  0.24391946  0.37560965  0.38459762     0.03700
N2539       N  0.23467939  0.41645075  0.39046693     0.66200
H2540       H  0.27856150  0.39701158  0.38926459     0.15100
H2541       H  0.22824236  0.27580218  0.36702126     0.14800
N2542       N  0.27204049  0.25660286  0.36434773     0.73900
O2543       O  0.23090092  0.42499735  0.41137959    -0.39500
O2544       O  0.23608403  0.44664043  0.37607364    -0.39500
O2545       O  0.27228417  0.22603330  0.37857629    -0.40200
O2546       O  0.27320617  0.24843528  0.34307179    -0.40200
C2547       C  0.48749809  0.18855316  0.38523444    -0.12500
C2548       C  0.48153210  0.23026140  0.39169498     0.04500
C2549       C  0.49907368  0.26000064  0.39679969    -0.07800
C2550       C  0.52207423  0.24790593  0.39464132    -0.08600
C2551       C  0.52791836  0.20634869  0.38796913    -0.03100
C2552       C  0.51044749  0.17623782  0.38362389     0.03700
N2553       N  0.51564973  0.13333791  0.37696445     0.66200
H2554       H  0.47424450  0.16534505  0.38133529     0.15100
H2555       H  0.53543658  0.27105349  0.39823575     0.14800
N2556       N  0.49391916  0.30308930  0.40312362     0.73900
O2557       O  0.51453507  0.10407089  0.39192346    -0.39500
O2558       O  0.51470846  0.12344504  0.35588662    -0.39500
O2559       O  0.49619168  0.31438585  0.42389424    -0.40200
O2560       O  0.49273174  0.33135848  0.38761390    -0.40200
C2561       C  0.26685243  0.63232551  0.13689087    -0.12500
C2562       C  0.27930842  0.59645240  0.12920461     0.04500
C2563       C  0.26709385  0.56096387  0.12046649    -0.07800
C2564       C  0.24303831  0.56126242  0.12066000    -0.08600
C2565       C  0.23080688  0.59672481  0.12889658    -0.03100
C2566       C  0.24286918  0.63279120  0.13670918     0.03700
N2567       N  0.23108953  0.66961127  0.14517938     0.66200
H2568       H  0.27580397  0.66030225  0.14328049     0.15100
H2569       H  0.23382371  0.53322930  0.11472652     0.14800
N2570       N  0.27864628  0.52369102  0.11228549     0.73900
O2571       O  0.22732480  0.67288967  0.16652920    -0.39500
O2572       O  0.22972236  0.70250165  0.13261101    -0.39500
O2573       O  0.28093179  0.49201259  0.12560457    -0.40200
O2574       O  0.28061169  0.51819703  0.09082187    -0.40200
C2575       C  0.52058140  0.70429706  0.13305705    -0.12500
C2576       C  0.52908287  0.72925596  0.11474847     0.04500
C2577       C  0.51332100  0.74373904  0.09768573    -0.07800
C2578       C  0.49003096  0.73327326  0.09944143    -0.08600
C2579       C  0.48179406  0.70935866  0.11804828    -0.03100
C2580       C  0.49729586  0.69442870  0.13485299     0.03700
N2581       N  0.48990815  0.66744179  0.15329700     0.66200
H2582       H  0.53201053  0.69223412  0.14629511     0.15100
H2583       H  0.47821341  0.74445761  0.08629029     0.14800
N2584       N  0.52030728  0.76962917  0.07863590     0.73900
O2585       O  0.49069819  0.62739074  0.15069867    -0.39500
O2586       O  0.48868384  0.68263199  0.17341087    -0.39500
O2587       O  0.52275913  0.75240620  0.05911882    -0.40200
O2588       O  0.51750129  0.80960484  0.07976482    -0.40200
C2589       C  0.39860282  0.71516045  0.23993788    -0.12500
C2590       C  0.37784596  0.71703184  0.22769856     0.04500
C2591       C  0.35775583  0.72879393  0.23964805    -0.07800
C2592       C  0.35869605  0.73753177  0.26327072    -0.08600
C2593       C  0.37931925  0.73471736  0.27580194    -0.03100
C2594       C  0.39952875  0.72346071  0.26372483     0.03700
N2595       N  0.42116547  0.71999236  0.27510825     0.66200
H2596       H  0.41419661  0.70586420  0.23113277     0.15100
H2597       H  0.34289989  0.74628501  0.27186013     0.14800
N2598       N  0.33623373  0.73303386  0.22806785     0.73900
O2599       O  0.42863638  0.68326313  0.28016140    -0.39500
O2600       O  0.43510137  0.75074281  0.27376960    -0.39500
O2601       O  0.32109818  0.70477696  0.23108923    -0.40200
O2602       O  0.33033879  0.76927966  0.22049799    -0.40200
C2603       C  0.40029382  0.91544247  0.13626006    -0.12500
C2604       C  0.38051558  0.93655871  0.12809580     0.04500
C2605       C  0.36223314  0.91142252  0.11962982    -0.07800
C2606       C  0.36394901  0.86678044  0.11980170    -0.08600
C2607       C  0.38366416  0.84567579  0.12805167    -0.03100
C2608       C  0.40208855  0.87075617  0.13621643     0.03700
N2609       N  0.42311615  0.85183936  0.14373141     0.66200
H2610       H  0.41482131  0.93370166  0.14248481     0.15100
H2611       H  0.34943635  0.84853843  0.11352392     0.14800
N2612       N  0.34159999  0.93022825  0.11102317     0.73900
O2613       O  0.43938394  0.84827211  0.12955456    -0.39500
O2614       O  0.42737437  0.84975259  0.16505274    -0.39500
O2615       O  0.33873288  0.93297090  0.08949257    -0.40200
O2616       O  0.32437754  0.93251577  0.12408913    -0.40200
C2617       C  0.36229917  0.41572280  0.12197224    -0.12500
C2618       C  0.38230033  0.43654124  0.12926325     0.04500
C2619       C  0.40097645  0.41135416  0.13717844    -0.07800
C2620       C  0.39912536  0.36678370  0.13788945    -0.08600
C2621       C  0.37910205  0.34600044  0.13067007    -0.03100
C2622       C  0.36048031  0.37114304  0.12259978     0.03700
N2623       N  0.33925963  0.35236348  0.11558259     0.66200
H2624       H  0.34765586  0.43415154  0.11611641     0.15100
H2625       H  0.41378276  0.34831515  0.14368156     0.14800
N2626       N  0.42231927  0.43005352  0.14385272     0.73900
O2627       O  0.32320497  0.34942726  0.13004065    -0.39500
O2628       O  0.33465171  0.34984886  0.09434676    -0.39500
O2629       O  0.42714599  0.43296834  0.16502272    -0.40200
O2630       O  0.43824884  0.43237247  0.12922025    -0.40200
C2631       C  0.26744237  0.06110894  0.12560844    -0.12500
C2632       C  0.27752861  0.09919454  0.13324478     0.04500
C2633       C  0.26326664  0.13419390  0.13911933    -0.07800
C2634       C  0.23947265  0.13017441  0.13767673    -0.08600
C2635       C  0.22950260  0.09169876  0.13083866    -0.03100
C2636       C  0.24359489  0.05693445  0.12463758     0.03700
N2637       N  0.23402799  0.01703232  0.11757841     0.66200
H2638       H  0.27809715  0.03403810  0.12097527     0.15100
H2639       H  0.22870230  0.15698326  0.14249637     0.14800
N2640       N  0.27250495  0.17446176  0.14603777     0.73900
O2641       O  0.23110157  0.01010014  0.09634004    -0.39500
O2642       O  0.23488055  0.98571572  0.13130150    -0.39500
O2643       O  0.27294172  0.20453080  0.13151309    -0.40200
O2644       O  0.27308496  0.18345674  0.16724181    -0.40200
C2645       C  0.49380931  0.18844846  0.11041730    -0.12500
C2646       C  0.47769673  0.21987019  0.11663476     0.04500
C2647       C  0.48566297  0.26119597  0.12240630    -0.07800
C2648       C  0.50926786  0.27001622  0.12206441    -0.08600
C2649       C  0.52527497  0.23811555  0.11658350    -0.03100
C2650       C  0.51738889  0.19705049  0.11062335     0.03700
N2651       N  0.53305852  0.16381913  0.10454726     0.66200
H2652       H  0.48810827  0.15647301  0.10602536     0.15100
H2653       H  0.51516384  0.30189720  0.12640443     0.14800
N2654       N  0.47009853  0.29490516  0.12797755     0.73900
O2655       O  0.53914753  0.13708464  0.11969132    -0.39500
O2656       O  0.53628837  0.15530988  0.08353109    -0.39500
O2657       O  0.46791151  0.30609699  0.14876002    -0.40200
O2658       O  0.46361566  0.32008889  0.11223302    -0.40200
C2659       C  0.36092583  0.21664151  0.26944361    -0.12500
C2660       C  0.38189017  0.22768677  0.27964551     0.04500
C2661       C  0.40159229  0.22985368  0.26558498    -0.07800
C2662       C  0.39983723  0.22131095  0.24181926    -0.08600
C2663       C  0.37875799  0.21005481  0.23164575    -0.03100
C2664       C  0.35911881  0.20776565  0.24596183     0.03700
N2665       N  0.33699348  0.19675313  0.23717094     0.66200
H2666       H  0.34555366  0.21467129  0.27987165     0.15100
H2667       H  0.41517387  0.22302744  0.23135837     0.14800
N2668       N  0.42330950  0.24208669  0.27483122     0.73900
O2669       O  0.32992106  0.15887509  0.23961984    -0.39500
O2670       O  0.32262529  0.22615681  0.23342939    -0.39500
O2671       O  0.43815308  0.21358164  0.27868441    -0.40200
O2672       O  0.42959159  0.28058217  0.27316378    -0.40200
C2673       C  0.14402268  0.82600656  0.51583107    -0.12500
C2674       C  0.12320709  0.82141952  0.52764846     0.04500
C2675       C  0.10310383  0.81316782  0.51469663    -0.07800
C2676       C  0.10385062  0.81348059  0.49054889    -0.08600
C2677       C  0.12430122  0.82184313  0.47871372    -0.03100
C2678       C  0.14475172  0.82673539  0.49164987     0.03700
N2679       N  0.16597920  0.83722588  0.48080036     0.66200
H2680       H  0.15963169  0.83261893  0.52534976     0.15100
H2681       H  0.08807371  0.80870843  0.48098636     0.14800
N2682       N  0.08165125  0.80505526  0.52568410     0.73900
O2683       O  0.17112141  0.87608648  0.47795979    -0.39500
O2684       O  0.18162535  0.80939347  0.48004140    -0.39500
O2685       O  0.06662469  0.83409659  0.52590319    -0.40200
O2686       O  0.07564376  0.76681696  0.52915283    -0.40200
C2687       C  0.10173894  0.32276117  0.51481699    -0.12500
C2688       C  0.12308668  0.32360959  0.52607720     0.04500
C2689       C  0.14308184  0.31803832  0.51264676    -0.07800
C2690       C  0.14136489  0.31586490  0.48847265    -0.08600
C2691       C  0.12005692  0.31945529  0.47716714    -0.03100
C2692       C  0.10001416  0.32088151  0.49080823     0.03700
N2693       N  0.07765797  0.32176193  0.48070645     0.66200
H2694       H  0.08603884  0.32528203  0.52468661     0.15100
H2695       H  0.15703167  0.31440857  0.47850413     0.14800
N2696       N  0.16536533  0.31772007  0.52289092     0.73900
O2697       O  0.06690348  0.28705123  0.47827458    -0.39500
O2698       O  0.06664217  0.35651237  0.48040100    -0.39500
O2699       O  0.17593506  0.28264927  0.52473496    -0.40200
O2700       O  0.17648973  0.35224631  0.52416790    -0.40200
C2701       C  0.14081471  0.61755208  0.61187626    -0.12500
C2702       C  0.12663158  0.59625941  0.62786246     0.04500
C2703       C  0.11336404  0.62126015  0.64310536    -0.07800
C2704       C  0.11485045  0.66582252  0.64233818    -0.08600
C2705       C  0.12901348  0.68714951  0.62637887    -0.03100
C2706       C  0.14201252  0.66222135  0.61086265     0.03700
N2707       N  0.15608194  0.68123720  0.59351513     0.66200
H2708       H  0.15105234  0.59953942  0.59970830     0.15100
H2709       H  0.10453700  0.68375213  0.65447704     0.14800
N2710       N  0.09798501  0.60245139  0.65935024     0.73900
O2711       O  0.17743812  0.68333654  0.59677693    -0.39500
O2712       O  0.14836174  0.68448236  0.57323449    -0.39500
O2713       O  0.10417222  0.59893629  0.68013684    -0.40200
O2714       O  0.07691791  0.60066875  0.65447666    -0.40200
C2715       C  0.14537090  0.16559085  0.62308324    -0.12500
C2716       C  0.12494764  0.18689585  0.62843952     0.04500
C2717       C  0.10555091  0.16214570  0.63479312    -0.07800
C2718       C  0.10706838  0.11745802  0.63572119    -0.08600
C2719       C  0.12744800  0.09619019  0.63015460    -0.03100
C2720       C  0.14683905  0.12092591  0.62389862     0.03700
N2721       N  0.16844175  0.10152494  0.61891562     0.66200
H2722       H  0.16054196  0.18371760  0.61855919     0.15100
H2723       H  0.09189471  0.09925714  0.64015557     0.14800
N2724       N  0.08380054  0.18141609  0.63930469     0.73900
O2725       O  0.17436453  0.09680960  0.59815052    -0.39500
O2726       O  0.18353733  0.09999289  0.63451501    -0.39500
O2727       O  0.06886168  0.18190842  0.62353176    -0.40200
O2728       O  0.07759721  0.18681461  0.65993742    -0.40200
C2729       C  0.10545400  0.62255146  0.98950408    -0.12500
C2730       C  0.12663775  0.61733754  0.97840107     0.04500
C2731       C  0.14685224  0.61923724  0.99192379    -0.07800
C2732       C  0.14528797  0.62200590  0.01606956    -0.08600
C2733       C  0.12392265  0.62249935  0.02723731    -0.03100
C2734       C  0.10388473  0.62501721  0.01352454     0.03700
N2735       N  0.08165039  0.62891095  0.02359755     0.66200
H2736       H  0.08972749  0.62300047  0.97951546     0.15100
H2737       H  0.16092480  0.62023336  0.02614927     0.14800
N2738       N  0.16903041  0.61466930  0.98183206     0.73900
O2739       O  0.07259868  0.66549328  0.02491222    -0.39500
O2740       O  0.06899949  0.59626119  0.02480661    -0.39500
O2741       O  0.18244231  0.64632323  0.98169609    -0.40200
O2742       O  0.17708387  0.57764224  0.97875797    -0.40200
C2743       C  0.11341577  0.47148539  0.76593170    -0.12500
C2744       C  0.13482090  0.47613350  0.77680193     0.04500
C2745       C  0.15480157  0.47422499  0.76300661    -0.07800
C2746       C  0.15295371  0.46738015  0.73920795    -0.08600
C2747       C  0.13156056  0.46260000  0.72834138    -0.03100
C2748       C  0.11158724  0.46505956  0.74204853     0.03700
N2749       N  0.08927754  0.45972338  0.73232652     0.66200
H2750       H  0.09780678  0.47345655  0.77596827     0.15100
H2751       H  0.16855704  0.46553829  0.72914264     0.14800
N2752       N  0.17722034  0.47800650  0.77277907     0.73900
O2753       O  0.08013621  0.42316138  0.73279005    -0.39500
O2754       O  0.07669767  0.49222472  0.72971278    -0.39500
O2755       O  0.18885043  0.44455461  0.77624324    -0.40200
O2756       O  0.18733073  0.51365454  0.77195633    -0.40200
C2757       C  0.10675289  0.13167738  0.01567822    -0.12500
C2758       C  0.12680645  0.11853477  0.02704258     0.04500
C2759       C  0.14626585  0.10802724  0.01371704    -0.07800
C2760       C  0.14480663  0.10828006  0.98956149    -0.08600
C2761       C  0.12415658  0.11809823  0.97822699    -0.03100
C2762       C  0.10524934  0.13160765  0.99156447     0.03700
N2763       N  0.08434636  0.14528161  0.98101722     0.66200
H2764       H  0.09176799  0.14047294  0.02563163     0.15100
H2765       H  0.15948212  0.09755710  0.97969394     0.14800
N2766       N  0.16680688  0.09241858  0.02423648     0.73900
O2767       O  0.06732704  0.12040013  0.98107796    -0.39500
O2768       O  0.08108744  0.18478173  0.97789856    -0.39500
O2769       O  0.16946041  0.05259537  0.02668347    -0.40200
O2770       O  0.18409980  0.11655320  0.02527088    -0.40200
C2771       C  0.14420988  0.82318612  0.88993002    -0.12500
C2772       C  0.12648559  0.84391642  0.87763598     0.04500
C2773       C  0.11093943  0.81846285  0.86501119    -0.07800
C2774       C  0.11313022  0.77391698  0.86528939    -0.08600
C2775       C  0.13066586  0.75307034  0.87781876    -0.03100
C2776       C  0.14646377  0.77856064  0.89011647     0.03700
N2777       N  0.16511475  0.76014531  0.90267277     0.66200
H2778       H  0.15672259  0.84168754  0.89948736     0.15100
H2779       H  0.10061707  0.75561492  0.85562578     0.14800
N2780       N  0.09254200  0.83682870  0.85204201     0.73900
O2781       O  0.18453800  0.75782059  0.89322845    -0.39500
O2782       O  0.16371212  0.75697900  0.92432537    -0.39500
O2783       O  0.09414211  0.83879423  0.83036035    -0.40200
O2784       O  0.07306079  0.84019113  0.86127181    -0.40200
C2785       C  0.11458338  0.27436392  0.86080714    -0.12500
C2786       C  0.13012073  0.25270577  0.87537140     0.04500
C2787       C  0.14514579  0.27735134  0.88911325    -0.07800
C2788       C  0.14401195  0.32198765  0.88832004    -0.08600
C2789       C  0.12813602  0.34364119  0.87412626    -0.03100
C2790       C  0.11343938  0.31900881  0.86003053     0.03700
N2791       N  0.09707464  0.33829334  0.84487809     0.66200
H2792       H  0.10288771  0.25666040  0.84986394     0.15100
H2793       H  0.15573492  0.33969065  0.89923545     0.14800
N2794       N  0.16162189  0.25810351  0.90415964     0.73900
O2795       O  0.10225481  0.34356352  0.82394465    -0.39500
O2796       O  0.07623756  0.33884271  0.85065144    -0.39500
O2797       O  0.18240126  0.25743438  0.89818275    -0.40200
O2798       O  0.15664661  0.25307575  0.92516165    -0.40200
C2799       C  0.15121286  0.97148613  0.76655823    -0.12500
C2800       C  0.13002227  0.97234709  0.77801981     0.04500
C2801       C  0.10984496  0.96588360  0.76482141    -0.07800
C2802       C  0.11128696  0.96060167  0.74081658    -0.08600
C2803       C  0.13250338  0.96052025  0.72943309    -0.03100
C2804       C  0.15266759  0.96548860  0.74272761     0.03700
N2805       N  0.17486593  0.96569707  0.73237100     0.66200
H2806       H  0.16700720  0.97600291  0.77612181     0.15100
H2807       H  0.09563737  0.95545118  0.73110387     0.14800
N2808       N  0.08770337  0.96472009  0.77523298     0.73900
O2809       O  0.18359434  0.00095004  0.72645696    -0.39500
O2810       O  0.18772031  0.93354586  0.73492500    -0.39500
O2811       O  0.07493797  0.99720248  0.77371897    -0.40200
O2812       O  0.07878704  0.92883976  0.77957716    -0.40200
C2813       C  0.86303540  0.82467501  0.98851918    -0.12500
C2814       C  0.88426962  0.82564136  0.97711466     0.04500
C2815       C  0.90445494  0.81973080  0.99023379    -0.07800
C2816       C  0.90317419  0.81621211  0.01418655    -0.08600
C2817       C  0.88218636  0.81946005  0.02585405    -0.03100
C2818       C  0.86178725  0.82201020  0.01266294     0.03700
N2819       N  0.83982090  0.82559136  0.02332488     0.66200
H2820       H  0.84729880  0.82896927  0.97881902     0.15100
H2821       H  0.91903139  0.81319110  0.02383579     0.14800
N2822       N  0.92656727  0.81850247  0.97972093     0.73900
O2823       O  0.83193181  0.86227876  0.02772689    -0.39500
O2824       O  0.82626286  0.79419903  0.02243938    -0.39500
O2825       O  0.93958388  0.85055254  0.98158283    -0.40200
O2826       O  0.93508144  0.78276600  0.97437172    -0.40200
C2827       C  0.98470207  0.00311063  0.88138496    -0.12500
C2828       C  0.97948847  0.95941594  0.88081789     0.04500
C2829       C  0.99734858  0.92904476  0.88100400    -0.07800
C2830       C  0.02007946  0.94288809  0.88163297    -0.08600
C2831       C  0.02530732  0.98656998  0.88280265    -0.03100
C2832       C  0.00743456  0.01692352  0.88270060     0.03700
N2833       N  0.01205263  0.06177966  0.88320034     0.66200
H2834       H  0.97102691  0.02660912  0.88127353     0.15100
H2835       H  0.03373394  0.91934087  0.88156807     0.14800
N2836       N  0.99275432  0.88418321  0.88004072     0.73900
O2837       O  0.01263317  0.08233572  0.86446665    -0.39500
O2838       O  0.00968172  0.08192863  0.90189170    -0.39500
O2839       O  0.99492432  0.86481769  0.86108180    -0.40200
O2840       O  0.99261252  0.86284016  0.89852582    -0.40200
C2841       C  0.90582845  0.31093801  0.98616856    -0.12500
C2842       C  0.88493869  0.32015144  0.97506617     0.04500
C2843       C  0.86495900  0.32340946  0.98877238    -0.07800
C2844       C  0.86651697  0.31981623  0.01288491    -0.08600
C2845       C  0.88773179  0.31429487  0.02404239    -0.03100
C2846       C  0.90744618  0.30829579  0.01026998     0.03700
N2847       N  0.92940593  0.30040186  0.02036969     0.66200
H2848       H  0.92134162  0.30729537  0.97611038     0.15100
H2849       H  0.85117683  0.32511599  0.02299846     0.14800
N2850       N  0.84336552  0.33506504  0.97895923     0.73900
O2851       O  0.93589753  0.26223839  0.02319165    -0.39500
O2852       O  0.94415266  0.32991824  0.02046397    -0.39500
O2853       O  0.82778228  0.30723200  0.97750449    -0.40200
O2854       O  0.83801528  0.37413998  0.97788274    -0.40200
C2855       C  0.87457938  0.61929990  0.89577395    -0.12500
C2856       C  0.88512172  0.59800493  0.87714507     0.04500
C2857       C  0.89364373  0.62297512  0.85875411    -0.07800
C2858       C  0.89146726  0.66755965  0.85935605    -0.08600
C2859       C  0.88088965  0.68880305  0.87794225    -0.03100
C2860       C  0.87232971  0.66389255  0.89633038     0.03700
N2861       N  0.86170043  0.68294923  0.91598327     0.66200
H2862       H  0.86793478  0.60130375  0.91027406     0.15100
H2863       H  0.89808546  0.68564263  0.84487161     0.14800
N2864       N  0.90415025  0.60397951  0.83902698     0.73900
O2865       O  0.84011086  0.68424796  0.91693953    -0.39500
O2866       O  0.87312734  0.68693327  0.93436334    -0.39500
O2867       O  0.89243916  0.59902377  0.82090112    -0.40200
O2868       O  0.92572963  0.60314931  0.83774048    -0.40200
C2869       C  0.87011461  0.16886462  0.89128080    -0.12500
C2870       C  0.87415501  0.18922636  0.87013818     0.04500
C2871       C  0.87974194  0.16363061  0.85074088    -0.07800
C2872       C  0.88140394  0.11904859  0.85299506    -0.08600
C2873       C  0.87757869  0.09879367  0.87423240    -0.03100
C2874       C  0.87194049  0.12441146  0.89356695     0.03700
N2875       N  0.86930279  0.10632680  0.91604286     0.66200
H2876       H  0.86640103  0.18770113  0.90651100     0.15100
H2877       H  0.88534369  0.10011986  0.83785677     0.14800
N2878       N  0.88320698  0.18199628  0.82843455     0.73900
O2879       O  0.84939614  0.10127987  0.92404609    -0.39500
O2880       O  0.88614736  0.10674990  0.92973206    -0.39500
O2881       O  0.90333143  0.18513045  0.82069029    -0.40200
O2882       O  0.86653766  0.18392659  0.81456691    -0.40200
C2883       C  0.02419668  0.43893500  0.88188478    -0.12500
C2884       C  0.02899902  0.48273376  0.88360875     0.04500
C2885       C  0.01077232  0.51227222  0.88497020    -0.07800
C2886       C  0.98816501  0.49757486  0.88413059    -0.08600
C2887       C  0.98338239  0.45372984  0.88261710    -0.03100
C2888       C  0.00159961  0.42418167  0.88169545     0.03700
N2889       N  0.99747981  0.37931557  0.87959987     0.66200
H2890       H  0.03809763  0.41599261  0.88082048     0.15100
H2891       H  0.97425047  0.52053363  0.88487323     0.14800
N2892       N  0.01485570  0.55726572  0.88633360     0.73900
O2893       O  0.99770395  0.36239696  0.85985004    -0.39500
O2894       O  0.99932480  0.35580071  0.89721118    -0.39500
O2895       O  0.01367889  0.57951337  0.86819296    -0.40200
O2896       O  0.01358474  0.57558135  0.90567439    -0.40200
C2897       C  0.86096759  0.60939366  0.51316139    -0.12500
C2898       C  0.88215356  0.61083267  0.52472975     0.04500
C2899       C  0.90211567  0.61880030  0.51167193    -0.07800
C2900       C  0.90085764  0.62087749  0.48759070    -0.08600
C2901       C  0.88000725  0.61531125  0.47581811    -0.03100
C2902       C  0.85968790  0.61152393  0.48897128     0.03700
N2903       N  0.83781146  0.60640439  0.47822660     0.66200
H2904       H  0.84536099  0.60381450  0.52280885     0.15100
H2905       H  0.91659370  0.62523536  0.47796601     0.14800
N2906       N  0.92390703  0.62469958  0.52247319     0.73900
O2907       O  0.82983419  0.56921415  0.47557046    -0.39500
O2908       O  0.82433704  0.63796411  0.47746082    -0.39500
O2909       O  0.93834163  0.59464865  0.52195301    -0.40200
O2910       O  0.93074659  0.66226183  0.52647231    -0.40200
C2911       C  0.01557080  0.46506020  0.64113439    -0.12500
C2912       C  0.02651051  0.45976034  0.61977830     0.04500
C2913       C  0.01342787  0.46390181  0.59935296    -0.07800
C2914       C  0.99006516  0.47317880  0.60068509    -0.08600
C2915       C  0.97903561  0.47806585  0.62202251    -0.03100
C2916       C  0.99208614  0.47374091  0.64246989     0.03700
N2917       N  0.98204271  0.47856227  0.66475831     0.66200
H2918       H  0.02519966  0.46164940  0.65704258     0.15100
H2919       H  0.98043851  0.47619124  0.58474919     0.14800
N2920       N  0.02351902  0.45958287  0.57703740     0.73900
O2921       O  0.97808167  0.44550457  0.67660130    -0.39500
O2922       O  0.98350381  0.51424522  0.67480975    -0.39500
O2923       O  0.02110090  0.42487103  0.56621079    -0.40200
O2924       O  0.02923448  0.49280627  0.56609415    -0.40200
C2925       C  0.89513360  0.47861893  0.73891012    -0.12500
C2926       C  0.87381395  0.47696775  0.72763031     0.04500
C2927       C  0.85380892  0.47346420  0.74119005    -0.07800
C2928       C  0.85545981  0.47129509  0.76521068    -0.08600
C2929       C  0.87674224  0.47213959  0.77663708    -0.03100
C2930       C  0.89680485  0.47649026  0.76308142     0.03700
N2931       N  0.91908267  0.47795060  0.77328308     0.66200
H2932       H  0.91069091  0.48238580  0.72893303     0.15100
H2933       H  0.83972642  0.46794174  0.77494333     0.14800
N2934       N  0.83158253  0.47037593  0.73093602     0.73900
O2935       O  0.93079673  0.44405513  0.77429691    -0.39500
O2936       O  0.92910158  0.51357208  0.77504751    -0.39500
O2937       O  0.82237497  0.43402874  0.72904363    -0.40200
O2938       O  0.81913463  0.50334588  0.72988123    -0.40200
C2939       C  0.90440174  0.12294491  0.48880246    -0.12500
C2940       C  0.88349838  0.11988889  0.47690526     0.04500
C2941       C  0.86297040  0.11929926  0.48987616    -0.07800
C2942       C  0.86393202  0.11747224  0.51406285    -0.08600
C2943       C  0.88499909  0.11606574  0.52581838    -0.03100
C2944       C  0.90537623  0.12113417  0.51289160     0.03700
N2945       N  0.92733027  0.12383124  0.52376504     0.66200
H2946       H  0.92034405  0.12479873  0.47928530     0.15100
H2947       H  0.84804779  0.11414259  0.52354846     0.14800
N2948       N  0.84104420  0.11697888  0.47896029     0.73900
O2949       O  0.93983106  0.09090512  0.52456279    -0.39500
O2950       O  0.93651160  0.16012008  0.52607801    -0.39500
O2951       O  0.83150752  0.08099792  0.47670102    -0.40200
O2952       O  0.82899353  0.15042266  0.47762874    -0.40200
C2953       C  0.89607235  0.76645878  0.63471938    -0.12500
C2954       C  0.87642178  0.74520864  0.62644187     0.04500
C2955       C  0.85768077  0.77016410  0.61884272    -0.07800
C2956       C  0.85919119  0.81487803  0.61911043    -0.08600
C2957       C  0.87897075  0.83603227  0.62707692    -0.03100
C2958       C  0.89747362  0.81110682  0.63526235     0.03700
N2959       N  0.91810171  0.83019561  0.64368180     0.66200
H2960       H  0.91079370  0.74835160  0.64065676     0.15100
H2961       H  0.84451032  0.83316944  0.61323007     0.14800
N2962       N  0.83667329  0.75106725  0.61149561     0.73900
O2963       O  0.92137920  0.83225223  0.66517635    -0.39500
O2964       O  0.93499465  0.83388816  0.63027755    -0.39500
O2965       O  0.82050342  0.74746947  0.62578544    -0.40200
O2966       O  0.83224383  0.74925957  0.59020712    -0.40200
C2967       C  0.89716639  0.31478824  0.63189561    -0.12500
C2968       C  0.87632840  0.33585976  0.62788271     0.04500
C2969       C  0.85663120  0.31095241  0.62290535    -0.07800
C2970       C  0.85820335  0.26628856  0.62197431    -0.08600
C2971       C  0.87903921  0.24524673  0.62595159    -0.03100
C2972       C  0.89877511  0.27013624  0.63078109     0.03700
N2973       N  0.92089356  0.25102534  0.63330641     0.66200
H2974       H  0.91259234  0.33314938  0.63513722     0.15100
H2975       H  0.84280877  0.24792434  0.61859004     0.14800
N2976       N  0.83465482  0.33011608  0.61948242     0.73900
O2977       O  0.92966744  0.24816957  0.65316315    -0.39500
O2978       O  0.93371273  0.24827941  0.61586556    -0.39500
O2979       O  0.82660185  0.33239058  0.59929809    -0.40200
O2980       O  0.82118719  0.33307245  0.63640711    -0.40200
C2981       C  0.98979042  0.97210806  0.64027729    -0.12500
C2982       C  0.97860384  0.97142595  0.61887016     0.04500
C2983       C  0.99127762  0.96120405  0.59894495    -0.07800
C2984       C  0.01472928  0.95251068  0.60079547    -0.08600
C2985       C  0.02613560  0.95366646  0.62223638    -0.03100
C2986       C  0.01322836  0.96350296  0.64218113     0.03700
N2987       N  0.02328703  0.96437443  0.66463395     0.66200
H2988       H  0.98033634  0.98012581  0.65576330     0.15100
H2989       H  0.02402990  0.94470966  0.58519444     0.14800
N2990       N  0.98050887  0.95754728  0.57686321     0.73900
O2991       O  0.02781670  0.00018881  0.67355874    -0.39500
O2992       O  0.02069001  0.93238253  0.67766324    -0.39500
O2993       O  0.98361614  0.98649294  0.56200862    -0.40200
O2994       O  0.97313778  0.92152425  0.57043519    -0.40200
C2995       C  0.85398991  0.95122422  0.76174389    -0.12500
C2996       C  0.87438658  0.95914367  0.77411571     0.04500
C2997       C  0.89413182  0.97111065  0.76146500    -0.07800
C2998       C  0.89308098  0.97448991  0.73736081    -0.08600
C2999       C  0.87266784  0.96681547  0.72525516    -0.03100
C3000       C  0.85296969  0.95488809  0.73770973     0.03700
N3001       N  0.83197997  0.94466289  0.72622700     0.66200
H3002       H  0.83856210  0.94152221  0.77069778     0.15100
H3003       H  0.90826826  0.98460986  0.72810244     0.14800
N3004       N  0.91545280  0.98012492  0.77253106     0.73900
O3005       O  0.82852557  0.90661556  0.71985224    -0.39500
O3006       O  0.81514732  0.96979107  0.72801686    -0.39500
O3007       O  0.93080826  0.95168660  0.77272225    -0.40200
O3008       O  0.92112746  0.01866381  0.77556605    -0.40200
C3009       C  0.40414593  0.86395106  0.51770866    -0.12500
C3010       C  0.38287119  0.86296476  0.52898930     0.04500
C3011       C  0.36277639  0.86744140  0.51541839    -0.07800
C3012       C  0.36436552  0.86787196  0.49119414    -0.08600
C3013       C  0.38563346  0.86408027  0.47998949    -0.03100
C3014       C  0.40574332  0.86432564  0.49366860     0.03700
N3015       N  0.42807103  0.86379094  0.48360108     0.66200
H3016       H  0.41991210  0.86253573  0.52760714     0.15100
H3017       H  0.34867782  0.86844262  0.48115802     0.14800
N3018       N  0.34054316  0.86919384  0.52562985     0.73900
O3019       O  0.43853691  0.89875351  0.48093688    -0.39500
O3020       O  0.43941290  0.82939973  0.48380638    -0.39500
O3021       O  0.33068498  0.90498318  0.52738797    -0.40200
O3022       O  0.32867139  0.83551872  0.52663725    -0.40200
C3023       C  0.26617897  0.84675949  0.65547505    -0.12500
C3024       C  0.27755071  0.84422307  0.63425578     0.04500
C3025       C  0.26448731  0.83705071  0.61406783    -0.07800
C3026       C  0.24056790  0.83327161  0.61549769    -0.08600
C3027       C  0.22918757  0.83610785  0.63678158    -0.03100
C3028       C  0.24246772  0.84230969  0.65702425     0.03700
N3029       N  0.23241417  0.84297295  0.67950059     0.66200
H3030       H  0.27588559  0.85114582  0.67127136     0.15100
H3031       H  0.23085654  0.82891843  0.59972065     0.14800
N3032       N  0.27515430  0.83158094  0.59212437     0.73900
O3033       O  0.23280138  0.80925600  0.69148766    -0.39500
O3034       O  0.22953000  0.87844541  0.68945973    -0.39500
O3035       O  0.27807539  0.79422137  0.58444067    -0.40200
O3036       O  0.27574577  0.86277469  0.57831216    -0.40200
C3037       C  0.40163049  0.37137162  0.51750102    -0.12500
C3038       C  0.38058134  0.36239385  0.52815141     0.04500
C3039       C  0.36050119  0.36254874  0.51442020    -0.07800
C3040       C  0.36219493  0.36726273  0.49040534    -0.08600
C3041       C  0.38357528  0.37178411  0.47957034    -0.03100
C3042       C  0.40329456  0.37634298  0.49357516     0.03700
N3043       N  0.42523857  0.38554567  0.48386532     0.66200
H3044       H  0.41714789  0.37332595  0.52776288     0.15100
H3045       H  0.34678464  0.36386287  0.48009924     0.14800
N3046       N  0.33846219  0.35431098  0.52411660     0.73900
O3047       O  0.43188379  0.42392768  0.48307476    -0.39500
O3048       O  0.43989239  0.35598426  0.48235054    -0.39500
O3049       O  0.32470279  0.38506698  0.52673939    -0.40200
O3050       O  0.33077118  0.31659198  0.52394258    -0.40200
C3051       C  0.39216963  0.51750686  0.64276238    -0.12500
C3052       C  0.37685142  0.49654746  0.62770280     0.04500
C3053       C  0.36272468  0.52193753  0.61336046    -0.07800
C3054       C  0.36445665  0.56657182  0.61414483    -0.08600
C3055       C  0.37988304  0.58746517  0.62912317    -0.03100
C3056       C  0.39374298  0.56206815  0.64371135     0.03700
N3057       N  0.40956830  0.58045503  0.65970021     0.66200
H3058       H  0.40317183  0.49930393  0.65421759     0.15100
H3059       H  0.35335598  0.58490164  0.60284490     0.14800
N3060       N  0.34636053  0.50347589  0.59795717     0.73900
O3061       O  0.40344823  0.58547627  0.68038604    -0.39500
O3062       O  0.43066532  0.57973275  0.65501821    -0.39500
O3063       O  0.32544734  0.50396653  0.60344870    -0.40200
O3064       O  0.35172593  0.49830163  0.57707083    -0.40200
C3065       C  0.38656134  0.06648092  0.65037236    -0.12500
C3066       C  0.37584901  0.08721169  0.63177816     0.04500
C3067       C  0.36468233  0.06172707  0.61487865    -0.07800
C3068       C  0.36490330  0.01717378  0.61667542    -0.08600
C3069       C  0.37613301  0.99638629  0.63487358    -0.03100
C3070       C  0.38678527  0.02177071  0.65214484     0.03700
N3071       N  0.39772671  0.00309770  0.67181023     0.66200
H3072       H  0.39486862  0.08502753  0.66377770     0.15100
H3073       H  0.35669566  0.99875220  0.60315649     0.14800
N3074       N  0.35373346  0.07999713  0.59512589     0.73900
O3075       O  0.41928468  0.99989998  0.67210774    -0.39500
O3076       O  0.38686649  0.00086487  0.69057243    -0.39500
O3077       O  0.36451755  0.08119213  0.57629573    -0.40200
O3078       O  0.33216263  0.08281302  0.59481532    -0.40200
C3079       C  0.26515378  0.33192990  0.61490102    -0.12500
C3080       C  0.27632407  0.34553291  0.63506923     0.04500
C3081       C  0.26316022  0.35417042  0.65481511    -0.07800
C3082       C  0.23943946  0.34890402  0.65417439    -0.08600
C3083       C  0.22791131  0.33553770  0.63401912    -0.03100
C3084       C  0.24125165  0.32665362  0.61417168     0.03700
N3085       N  0.23114182  0.31197029  0.59317540     0.66200
H3086       H  0.27513324  0.32382303  0.59976718     0.15100
H3087       H  0.22999838  0.35644466  0.66972014     0.14800
N3088       N  0.27345419  0.36986774  0.67552930     0.73900
O3089       O  0.22777699  0.33843662  0.57706767    -0.39500
O3090       O  0.23213657  0.27261526  0.58843482    -0.39500
O3091       O  0.27298276  0.40954792  0.67949538    -0.40200
O3092       O  0.27687947  0.34434817  0.69205990    -0.40200
C3093       C  0.40440561  0.56550220  0.99064808    -0.12500
C3094       C  0.38330889  0.57259819  0.97956905     0.04500
C3095       C  0.36309691  0.57167748  0.99301360    -0.07800
C3096       C  0.36469040  0.56868654  0.01713930    -0.08600
C3097       C  0.38608438  0.56656564  0.02830237    -0.03100
C3098       C  0.40596685  0.56230790  0.01464871     0.03700
N3099       N  0.42798074  0.55517980  0.02478221     0.66200
H3100       H  0.42006705  0.56393342  0.98066006     0.15100
H3101       H  0.34913100  0.57144964  0.02720398     0.14800
N3102       N  0.34096047  0.57718546  0.98285616     0.73900
O3103       O  0.43545567  0.51736846  0.02613932    -0.39500
O3104       O  0.44195410  0.58587878  0.02609226    -0.39500
O3105       O  0.32771672  0.54538655  0.98146743    -0.40200
O3106       O  0.33269982  0.61437118  0.98113702    -0.40200
C3107       C  0.24171706  0.63594901  0.87454526    -0.12500
C3108       C  0.23127843  0.59586932  0.87418920     0.04500
C3109       C  0.24490375  0.55844955  0.87491667    -0.07800
C3110       C  0.26875438  0.56177526  0.87536553    -0.08600
C3111       C  0.27922356  0.60183935  0.87452123    -0.03100
C3112       C  0.26556733  0.63927947  0.87444012     0.03700
N3113       N  0.27560470  0.68094755  0.87452257     0.66200
H3114       H  0.23134153  0.66473074  0.87422840     0.15100
H3115       H  0.27911182  0.53297200  0.87566057     0.14800
N3116       N  0.23480527  0.51683637  0.87542184     0.73900
O3117       O  0.27571254  0.70238904  0.85607344    -0.39500
O3118       O  0.27802435  0.70017098  0.89349837    -0.39500
O3119       O  0.23394495  0.49529970  0.85704999    -0.40200
O3120       O  0.23284585  0.49781584  0.89452275    -0.40200
C3121       C  0.35699210  0.72398594  0.76843245    -0.12500
C3122       C  0.37835401  0.71751128  0.77905430     0.04500
C3123       C  0.39802062  0.71449693  0.76495568    -0.07800
C3124       C  0.39586419  0.71747863  0.74088349    -0.08600
C3125       C  0.37439599  0.72342243  0.73026459    -0.03100
C3126       C  0.35476757  0.72662239  0.74449314     0.03700
N3127       N  0.33222550  0.73106722  0.73508397     0.66200
H3128       H  0.34159658  0.72601743  0.77881378     0.15100
H3129       H  0.41124302  0.71558667  0.73049294     0.14800
N3130       N  0.42019444  0.70664887  0.77452536     0.73900
O3131       O  0.32009060  0.69804112  0.73238998    -0.39500
O3132       O  0.32260723  0.76722522  0.73554670    -0.39500
O3133       O  0.42792650  0.66893979  0.77458069    -0.40200
O3134       O  0.43397581  0.73749753  0.77662099    -0.40200
C3135       C  0.40219830  0.06668365  0.01800926    -0.12500
C3136       C  0.38123867  0.07101872  0.02957142     0.04500
C3137       C  0.36080646  0.07165295  0.01637677    -0.07800
C3138       C  0.36198421  0.07288030  0.99219938    -0.08600
C3139       C  0.38319358  0.07339371  0.98075039    -0.03100
C3140       C  0.40338678  0.06776840  0.99395728     0.03700
N3141       N  0.42540107  0.06421837  0.98339248     0.66200
H3142       H  0.41804229  0.06453410  0.02774733     0.15100
H3143       H  0.34620758  0.07633406  0.98247226     0.14800
N3144       N  0.33881480  0.07444265  0.02704232     0.73900
O3145       O  0.43841946  0.09643409  0.98310530    -0.39500
O3146       O  0.43394139  0.02752428  0.98050038    -0.39500
O3147       O  0.32941110  0.11058017  0.02918038    -0.40200
O3148       O  0.32668901  0.04115235  0.02856575    -0.40200
C3149       C  0.37628456  0.87155712  0.89950296    -0.12500
C3150       C  0.38307445  0.85022935  0.87921674     0.04500
C3151       C  0.38793315  0.87486358  0.85942402    -0.07800
C3152       C  0.38560653  0.91939401  0.86021345    -0.08600
C3153       C  0.37870505  0.94062777  0.88045806    -0.03100
C3154       C  0.37414853  0.91610708  0.90033819     0.03700
N3155       N  0.36849358  0.93571961  0.92184157     0.66200
H3156       H  0.37280793  0.85356457  0.91509981     0.15100
H3157       H  0.38927152  0.93753140  0.84470688     0.14800
N3158       N  0.39474556  0.85550652  0.83820699     0.73900
O3159       O  0.34772306  0.93849807  0.92765171    -0.39500
O3160       O  0.38382246  0.93926851  0.93711233    -0.39500
O3161       O  0.38006967  0.85076384  0.82239730    -0.40200
O3162       O  0.41576018  0.85429233  0.83316313    -0.40200
C3163       C  0.39315936  0.41922819  0.86377083    -0.12500
C3164       C  0.37836511  0.44102332  0.87897054     0.04500
C3165       C  0.36494425  0.41643030  0.89429092    -0.07800
C3166       C  0.36661374  0.37174464  0.89411660    -0.08600
C3167       C  0.38153954  0.34996914  0.87903809    -0.03100
C3168       C  0.39495926  0.37458541  0.86370672     0.03700
N3169       N  0.41081169  0.35530039  0.84810177     0.66200
H3170       H  0.40377755  0.43685984  0.85176200     0.15100
H3171       H  0.35598743  0.35408845  0.90610569     0.14800
N3172       N  0.34968991  0.43586403  0.91042473     0.73900
O3173       O  0.40499846  0.35012999  0.82731177    -0.39500
O3174       O  0.43180762  0.35447837  0.85335299    -0.39500
O3175       O  0.32872803  0.43911374  0.90532488    -0.40200
O3176       O  0.35574154  0.43892397  0.93127076    -0.40200
C3177       C  0.26537355  0.10103631  0.85304985    -0.12500
C3178       C  0.27671491  0.09369609  0.87417942     0.04500
C3179       C  0.26324552  0.09019154  0.89438111    -0.07800
C3180       C  0.23926729  0.09386065  0.89296715    -0.08600
C3181       C  0.22817120  0.10129232  0.87179140    -0.03100
C3182       C  0.24159263  0.10543018  0.85173907     0.03700
N3183       N  0.23152645  0.11631248  0.83001021     0.66200
H3184       H  0.27506894  0.10467773  0.83724585     0.15100
H3185       H  0.22923390  0.08990588  0.90853745     0.14800
N3186       N  0.27342748  0.08399922  0.91655206     0.73900
O3187       O  0.23027216  0.15521126  0.82428666    -0.39500
O3188       O  0.22977705  0.08797040  0.81462716    -0.39500
O3189       O  0.27699668  0.11611403  0.92922985    -0.40200
O3190       O  0.27283543  0.04728087  0.92559640    -0.40200
C3191       C  0.35406808  0.22641009  0.74293327    -0.12500
C3192       C  0.37506358  0.22716928  0.73109389     0.04500
C3193       C  0.39552431  0.22437282  0.74422480    -0.07800
C3194       C  0.39449955  0.22019742  0.76834959    -0.08600
C3195       C  0.37344468  0.21866118  0.78003362    -0.03100
C3196       C  0.35304845  0.22247893  0.76695225     0.03700
N3197       N  0.33105199  0.22380629  0.77772030     0.66200
H3198       H  0.33808502  0.22930468  0.73349671     0.15100
H3199       H  0.41038919  0.21707000  0.77792075     0.14800
N3200       N  0.41755358  0.22655655  0.73363165     0.73900
O3201       O  0.32277814  0.25956610  0.78341348    -0.39500
O3202       O  0.31786048  0.19201805  0.77584468    -0.39500
O3203       O  0.42822264  0.26166234  0.73377870    -0.40200
O3204       O  0.42863054  0.19235170  0.73060394    -0.40200
C3205       C  0.64364994  0.56908043  0.51528751    -0.12500
C3206       C  0.62263269  0.57448650  0.52682566     0.04500
C3207       C  0.60225411  0.57219495  0.51357891    -0.07800
C3208       C  0.60332497  0.56919424  0.48953847    -0.08600
C3209       C  0.62431472  0.56848291  0.47771539    -0.03100
C3210       C  0.64469181  0.56594089  0.49102758     0.03700
N3211       N  0.66665781  0.56229436  0.48039311     0.66200
H3212       H  0.65953965  0.56961894  0.52499099     0.15100
H3213       H  0.58733910  0.56939501  0.47997604     0.14800
N3214       N  0.58012882  0.57365570  0.52405292     0.73900
O3215       O  0.67913570  0.59509307  0.47867405    -0.39500
O3216       O  0.67574399  0.52578436  0.47873422    -0.39500
O3217       O  0.56862652  0.60778666  0.52283066    -0.40200
O3218       O  0.56986829  0.53894520  0.52811945    -0.40200
C3219       C  0.73943668  0.60275729  0.61397094    -0.12500
C3220       C  0.72851835  0.58924102  0.63428540     0.04500
C3221       C  0.74195409  0.58058595  0.65392742    -0.07800
C3222       C  0.76567656  0.58531604  0.65294428    -0.08600
C3223       C  0.77691315  0.59821936  0.63256914    -0.03100
C3224       C  0.76333272  0.60764435  0.61295319     0.03700
N3225       N  0.77322509  0.62281980  0.59198361     0.66200
H3226       H  0.72926514  0.61121087  0.59896905     0.15100
H3227       H  0.77533460  0.57761094  0.66838581     0.14800
N3228       N  0.73196323  0.56538304  0.67487209     0.73900
O3229       O  0.77576415  0.59714239  0.57540676    -0.39500
O3230       O  0.77330419  0.66252340  0.58800550    -0.39500
O3231       O  0.73169797  0.52563319  0.67869665    -0.40200
O3232       O  0.72986369  0.59081856  0.69162283    -0.40200
C3233       C  0.51185008  0.67635387  0.62714416    -0.12500
C3234       C  0.52733769  0.70990526  0.62350625     0.04500
C3235       C  0.51907232  0.75179116  0.62050605    -0.07800
C3236       C  0.49547792  0.75929917  0.62040489    -0.08600
C3237       C  0.47985938  0.72583150  0.62399339    -0.03100
C3238       C  0.48822836  0.68403977  0.62781550     0.03700
N3239       N  0.47310010  0.64891938  0.63177556     0.66200
H3240       H  0.51815696  0.64402828  0.62960845     0.15100
H3241       H  0.48932252  0.79167949  0.61777716     0.14800
N3242       N  0.53433939  0.78684467  0.61693684     0.73900
O3243       O  0.46709698  0.62586697  0.61496243    -0.39500
O3244       O  0.47107770  0.63446652  0.65199777    -0.39500
O3245       O  0.53714681  0.80115593  0.59678197    -0.40200
O3246       O  0.54012469  0.80960056  0.63393687    -0.40200
C3247       C  0.64483308  0.07122051  0.51301425    -0.12500
C3248       C  0.62353556  0.07488553  0.52420543     0.04500
C3249       C  0.60339262  0.06994940  0.51089739    -0.07800
C3250       C  0.60481103  0.06567168  0.48696493    -0.08600
C3251       C  0.62594514  0.06685851  0.47541731    -0.03100
C3252       C  0.64623726  0.06728673  0.48886711     0.03700
N3253       N  0.66838023  0.06653674  0.47841794     0.66200
H3254       H  0.66057010  0.07402959  0.52285747     0.15100
H3255       H  0.58896581  0.06387530  0.47721552     0.14800
N3256       N  0.58117568  0.07046202  0.52119127     0.73900
O3257       O  0.67911619  0.10119476  0.47566996    -0.39500
O3258       O  0.67924841  0.03165762  0.47763032    -0.39500
O3259       O  0.56917756  0.10396824  0.51975668    -0.40200
O3260       O  0.57150638  0.03536896  0.52573670    -0.40200
C3261       C  0.64450575  0.87288716  0.61485971    -0.12500
C3262       C  0.63003926  0.85152847  0.63057036     0.04500
C3263       C  0.61670489  0.87663976  0.64572373    -0.07800
C3264       C  0.61770212  0.92136303  0.64447453    -0.08600
C3265       C  0.63162076  0.94273167  0.62825301    -0.03100
C3266       C  0.64539642  0.91761099  0.61352485     0.03700
N3267       N  0.66009535  0.93651014  0.59669733     0.66200
H3268       H  0.65513159  0.85486087  0.60304083     0.15100
H3269       H  0.60705845  0.93939209  0.65627558     0.14800
N3270       N  0.60172518  0.85772726  0.66231569     0.73900
O3271       O  0.68113067  0.94066157  0.60125513    -0.39500
O3272       O  0.65356798  0.93804327  0.57594543    -0.39500
O3273       O  0.60778220  0.85654493  0.68321738    -0.40200
O3274       O  0.58083574  0.85295816  0.65728545    -0.40200
C3275       C  0.60767314  0.37424049  0.62916065    -0.12500
C3276       C  0.62865592  0.35222657  0.62930976     0.04500
C3277       C  0.64925301  0.37618877  0.62868398    -0.07800
C3278       C  0.64849904  0.42092841  0.62749827    -0.08600
C3279       C  0.62756021  0.44272174  0.62710181    -0.03100
C3280       C  0.60697237  0.41900095  0.62784423     0.03700
N3281       N  0.58521552  0.43992827  0.62635188     0.66200
H3282       H  0.59170087  0.35655529  0.62913809     0.15100
H3283       H  0.66442621  0.43876390  0.62751635     0.14800
N3284       N  0.67113802  0.35592006  0.63031514     0.73900
O3285       O  0.57965124  0.45961792  0.60815676    -0.39500
O3286       O  0.57287846  0.44325004  0.64410551    -0.39500
O3287       O  0.68369143  0.35441821  0.61264374    -0.40200
O3288       O  0.68022571  0.35151412  0.64994957    -0.40200
C3289       C  0.76611174  0.09755810  0.61130904    -0.12500
C3290       C  0.77759601  0.10108105  0.63253891     0.04500
C3291       C  0.76443740  0.10283386  0.65295407    -0.07800
C3292       C  0.74058292  0.10001488  0.65183371    -0.08600
C3293       C  0.72896130  0.09590014  0.63068806    -0.03100
C3294       C  0.74209566  0.09492911  0.61017426     0.03700
N3295       N  0.73152721  0.09202972  0.58799552     0.66200
H3296       H  0.77585465  0.09541101  0.59545516     0.15100
H3297       H  0.73107488  0.10162905  0.66785145     0.14800
N3298       N  0.77488583  0.10850726  0.67506268     0.73900
O3299       O  0.72867736  0.12570132  0.57630505    -0.39500
O3300       O  0.73102344  0.05628449  0.57791655    -0.39500
O3301       O  0.77595638  0.14567707  0.68346851    -0.40200
O3302       O  0.77675252  0.07670674  0.68836345    -0.40200
C3303       C  0.51237865  0.18557544  0.63390677    -0.12500
C3304       C  0.52622101  0.21019426  0.61941089     0.04500
C3305       C  0.51648071  0.24334696  0.60635097    -0.07800
C3306       C  0.49298830  0.25127253  0.60785653    -0.08600
C3307       C  0.47872191  0.22648855  0.62221432    -0.03100
C3308       C  0.48878761  0.19316280  0.63539948     0.03700
N3309       N  0.47549972  0.16585726  0.64989941     0.66200
H3310       H  0.51991329  0.15983554  0.64393725     0.15100
H3311       H  0.48599463  0.27748427  0.59781576     0.14800
N3312       N  0.53026625  0.26994072  0.59191713     0.73900
O3313       O  0.46808288  0.13106337  0.64177949    -0.39500
O3314       O  0.47721230  0.16992183  0.67148953    -0.39500
O3315       O  0.52989326  0.26426123  0.57037514    -0.40200
O3316       O  0.53801293  0.30461380  0.59987101    -0.40200
C3317       C  0.64667069  0.87040108  0.98994436    -0.12500
C3318       C  0.62547982  0.87278171  0.97844799     0.04500
C3319       C  0.60550139  0.87996658  0.99168438    -0.07800
C3320       C  0.60676627  0.88009040  0.01576528    -0.08600
C3321       C  0.62759236  0.87318215  0.02730634    -0.03100
C3322       C  0.64792426  0.87046075  0.01412886     0.03700
N3323       N  0.66974114  0.86383229  0.02478453     0.66200
H3324       H  0.66226143  0.86520513  0.98021306     0.15100
H3325       H  0.59105329  0.88367278  0.02552341     0.14800
N3326       N  0.58363500  0.88637613  0.98109324     0.73900
O3327       O  0.67672041  0.82612408  0.02818376    -0.39500
O3328       O  0.68395101  0.89423064  0.02528175    -0.39500
O3329       O  0.56911327  0.85648959  0.98159181    -0.40200
O3330       O  0.57684589  0.92412034  0.97744710    -0.40200
C3331       C  0.74171576  0.83992663  0.89110505    -0.12500
C3332       C  0.73024669  0.85029229  0.87055701     0.04500
C3333       C  0.74301235  0.85442333  0.85007683    -0.07800
C3334       C  0.76663069  0.84795627  0.85044084    -0.08600
C3335       C  0.77840894  0.83799003  0.87098854    -0.03100
C3336       C  0.76551034  0.83354891  0.89153059     0.03700
N3337       N  0.77602919  0.82256386  0.91298997     0.66200
H3338       H  0.73204025  0.83508975  0.90683757     0.15100
H3339       H  0.77583427  0.85194658  0.83436636     0.14800
N3340       N  0.73240708  0.86633171  0.82876141     0.73900
O3341       O  0.78004376  0.85174896  0.92746284    -0.39500
O3342       O  0.77521309  0.78422952  0.91979173    -0.39500
O3343       O  0.73294888  0.90504119  0.82258291    -0.40200
O3344       O  0.72862447  0.83789862  0.81379720    -0.40200
C3345       C  0.52294223  0.69376855  0.89023187    -0.12500
C3346       C  0.52811604  0.73682284  0.88628687     0.04500
C3347       C  0.51025865  0.76678145  0.88358237    -0.07800
C3348       C  0.48753025  0.75281706  0.88394891    -0.08600
C3349       C  0.48230369  0.70962789  0.88783434    -0.03100
C3350       C  0.50022305  0.68003924  0.89142322     0.03700
N3351       N  0.49572843  0.63577326  0.89551513     0.66200
H3352       H  0.53664365  0.67073300  0.89264483     0.15100
H3353       H  0.47388210  0.77590743  0.88139712     0.14800
N3354       N  0.51487314  0.81114782  0.87987095     0.73900
O3355       O  0.49632516  0.60995620  0.87881392    -0.39500
O3356       O  0.49702343  0.62146479  0.91583861    -0.39500
O3357       O  0.51410058  0.82586969  0.85960849    -0.40200
O3358       O  0.51364018  0.83665157  0.89668233    -0.40200
C3359       C  0.61235798  0.72322653  0.76717061    -0.12500
C3360       C  0.63343480  0.72213255  0.77892545     0.04500
C3361       C  0.65365650  0.71631743  0.76586399    -0.07800
C3362       C  0.65242053  0.71172841  0.74188882    -0.08600
C3363       C  0.63140666  0.71299162  0.72999366    -0.03100
C3364       C  0.61114722  0.71912278  0.74303000     0.03700
N3365       N  0.58912998  0.72099660  0.73229471     0.66200
H3366       H  0.59665824  0.72859318  0.77669693     0.15100
H3367       H  0.66827127  0.70696525  0.73252301     0.14800
N3368       N  0.67570728  0.71407518  0.77657860     0.73900
O3369       O  0.57682817  0.68781782  0.73197791    -0.39500
O3370       O  0.57978787  0.75702226  0.72937051    -0.39500
O3371       O  0.68421317  0.67782909  0.78094179    -0.40200
O3372       O  0.68878167  0.74616532  0.77555842    -0.40200
C3373       C  0.60407616  0.37172632  0.98783036    -0.12500
C3374       C  0.62522424  0.36711477  0.97654465     0.04500
C3375       C  0.64548187  0.36937915  0.98996873    -0.07800
C3376       C  0.64405364  0.37191765  0.01412916    -0.08600
C3377       C  0.62276551  0.37230049  0.02548686    -0.03100
C3378       C  0.60263529  0.37438957  0.01186596     0.03700
N3379       N  0.58044082  0.37839079  0.02201719     0.66200
H3380       H  0.58826992  0.37189729  0.97797166     0.15100
H3381       H  0.65980020  0.37070657  0.02405281     0.14800
N3382       N  0.66764343  0.36633462  0.97969772     0.73900
O3383       O  0.57177805  0.41517303  0.02410339    -0.39500
O3384       O  0.56747748  0.34611549  0.02269915    -0.39500
O3385       O  0.67948405  0.39983528  0.97743471    -0.40200
O3386       O  0.67740728  0.33035702  0.97869508    -0.40200
C3387       C  0.60759797  0.57091097  0.87435634    -0.12500
C3388       C  0.62792182  0.59266115  0.87997891     0.04500
C3389       C  0.64759125  0.56818516  0.88580238    -0.07800
C3390       C  0.64674475  0.52347130  0.88528350    -0.08600
C3391       C  0.62658838  0.50185606  0.87934480    -0.03100
C3392       C  0.60665656  0.52606754  0.87441613     0.03700
N3393       N  0.58509850  0.50563966  0.87036862     0.66200
H3394       H  0.59212281  0.58878946  0.87055415     0.15100
H3395       H  0.66221818  0.50560239  0.88912140     0.14800
N3396       N  0.66890173  0.58789885  0.89162229     0.73900
O3397       O  0.57507826  0.48638632  0.88662326    -0.39500
O3398       O  0.57720682  0.50321806  0.85013125    -0.39500
O3399       O  0.67507896  0.58878884  0.91249268    -0.40200
O3400       O  0.68377455  0.59286004  0.87608392    -0.40200
C3401       C  0.64409066  0.07277306  0.88815461    -0.12500
C3402       C  0.62808307  0.09333108  0.87357976     0.04500
C3403       C  0.61432232  0.06762051  0.85912456    -0.07800
C3404       C  0.61630397  0.02303313  0.86009148    -0.08600
C3405       C  0.63184804  0.00244676  0.87515876    -0.03100
C3406       C  0.64613116  0.02821838  0.88906003     0.03700
N3407       N  0.66284265  0.01019353  0.90427996     0.66200
H3408       H  0.65527577  0.09128241  0.89924769     0.15100
H3409       H  0.60521478  0.00449801  0.84891562     0.14800
N3410       N  0.59814466  0.08573087  0.84335748     0.73900
O3411       O  0.68349897  0.00878532  0.89792487    -0.39500
O3412       O  0.65826106  0.00705328  0.92547728    -0.39500
O3413       O  0.60298467  0.08689169  0.82215898    -0.40200
O3414       O  0.57748545  0.08926927  0.84945241    -0.40200
C3415       C  0.73995738  0.38596339  0.87565480    -0.12500
C3416       C  0.72992281  0.34598838  0.87192184     0.04500
C3417       C  0.74411848  0.30942572  0.86980375    -0.07800
C3418       C  0.76793394  0.31369097  0.87075651    -0.08600
C3419       C  0.77794839  0.35388898  0.87338755    -0.03100
C3420       C  0.76381777  0.39029258  0.87611881     0.03700
N3421       N  0.77340185  0.43181622  0.87963882     0.66200
H3422       H  0.72926175  0.41409410  0.87758850     0.15100
H3423       H  0.77865582  0.28559101  0.86880745     0.14800
N3424       N  0.73469267  0.26754548  0.86715239     0.73900
O3425       O  0.77472143  0.45724828  0.86278176    -0.39500
O3426       O  0.77454560  0.44653007  0.89986841    -0.39500
O3427       O  0.73664347  0.24888682  0.84796653    -0.40200
O3428       O  0.73075136  0.24550253  0.88494998    -0.40200
C3429       C  0.52139282  0.19337190  0.89210783    -0.12500
C3430       C  0.52678236  0.23390141  0.88344111     0.04500
C3431       C  0.50902943  0.26182607  0.87680709    -0.07800
C3432       C  0.48626393  0.24817874  0.87800194    -0.08600
C3433       C  0.48067163  0.20744669  0.88652402    -0.03100
C3434       C  0.49855478  0.18013853  0.89410650     0.03700
N3435       N  0.49401851  0.13879677  0.90358605     0.66200
H3436       H  0.53500344  0.17208711  0.89768420     0.15100
H3437       H  0.47283314  0.26997797  0.87257409     0.14800
N3438       N  0.51377527  0.30414899  0.86884867     0.73900
O3439       O  0.49533184  0.10641399  0.89068227    -0.39500
O3440       O  0.49508964  0.13378115  0.92516726    -0.39500
O3441       O  0.51276031  0.31197128  0.84751517    -0.40200
O3442       O  0.51281273  0.33479429  0.88296613    -0.40200
C3443       C  0.61118135  0.22824221  0.76355033    -0.12500
C3444       C  0.63213272  0.22502713  0.77540595     0.04500
C3445       C  0.65219131  0.21670185  0.76257385    -0.07800
C3446       C  0.65095550  0.21198841  0.73861407    -0.08600
C3447       C  0.63005461  0.21530999  0.72656733    -0.03100
C3448       C  0.60994116  0.22376743  0.73945438     0.03700
N3449       N  0.58802320  0.22745818  0.72864618     0.66200
H3450       H  0.59562154  0.23535874  0.77298008     0.15100
H3451       H  0.66670168  0.20530890  0.72941583     0.14800
N3452       N  0.67396501  0.21145381  0.77355919     0.73900
O3453       O  0.57476395  0.19558421  0.72872596    -0.39500
O3454       O  0.57973929  0.26425460  0.72531133    -0.39500
O3455       O  0.68163761  0.17413437  0.77667746    -0.40200
O3456       O  0.68768167  0.24263308  0.77409314    -0.40200
loop_ 
_geom_bond_atom_site_label_1 
_geom_bond_atom_site_label_2 
_geom_bond_distance 
_geom_bond_site_symmetry_2 
_ccdc_geom_bond_type 
Zr1           O2   2.441       .  S
Zr1           O3   2.458       .  S
Zr1           O4   2.469       .  S
Zr1           O7   2.450       .  S
Zr1           O9   2.377       .  S
Zr1          O10   2.393       .  S
Zr1          O11   2.412       .  S
Zr1          O12   2.408       .  S
O2           H58   0.990       .  S
O2           H66   0.990       .  S
O3           C23   1.287       .  A
O4           C25   1.291       .  A
O5          Zr15   2.412       .  S
O5           C24   1.281       .  A
O6          Zr14   2.420       .  S
O6           C25   1.281       .  A
O7           C24   1.287       .  A
O8          Zr16   2.393       .  S
O8           C23   1.277       .  A
O9          Zr14   2.393       .  S
O9          Zr16   2.384       .  S
O10         Zr15   2.395       .  S
O10         Zr16   2.372       .  S
O10          H45   0.969       .  S
O11         Zr14   2.396       .  S
O11         Zr31   2.384       .  S
O11          H48   0.972       .  S
O12         Zr15   2.393       .  S
O12         Zr31   2.387       .  S
Zr13         O38   2.442       .  S
Zr13         O32   2.454       .  S
Zr13         O40   2.454       .  S
Zr13         O28   2.473       .  S
Zr13         O19   2.406       .  S
Zr13         O20   2.412       .  S
Zr13         O21   2.386       .  S
Zr13         O22   2.389       .  S
Zr14         O33   2.436       .  S
Zr14         O26   2.433       .  S
Zr14         O27   2.409       .  S
Zr14         O20   2.402       .  S
Zr14         O21   2.399       .  S
Zr15         O17   2.435       .  S
Zr15         O39   2.436       .  S
Zr15         O41   2.428       .  S
Zr15         O19   2.381       .  S
Zr15         O22   2.384       .  S
Zr16         O42   2.436       .  S
Zr16         O43   2.435       .  S
Zr16         O18   2.436       .  S
Zr16         O19   2.386       .  S
Zr16         O20   2.367       .  S
O17          H54   0.990       .  S
O18          H49   0.990       .  S
O18          H63   0.990       .  S
O20          H46   0.967       .  S
O21         Zr31   2.389       .  S
O22         Zr31   2.379       .  S
O22          H47   0.966       .  S
C23        C3402   1.494       .  S
C24        C3430   1.467       .  S
C25        C3444   1.487       .  S
O26          H62   0.990       .  S
O27          C29   1.280       .  A
O28          C29   1.291       .  A
C29        C3416   1.472       .  S
O30         Zr31   2.441       .  S
O30          H59   0.990       .  S
Zr31         O34   2.436       .  S
Zr31         O35   2.438       .  S
Zr31         O36   2.399       .  S
O32          C37   1.287       .  A
O33          H50   0.990       .  S
O33          H65   0.990       .  S
O34          H51   0.990       .  S
O35          H55   0.990       .  S
O35          H64   0.989       .  S
O36          C37   1.278       .  A
C37        C3391   1.485       .  S
O38          H57   0.991       .  S
O38          H61   0.990       .  S
O39          H53   0.990       .  S
O39          H60   0.990       .  S
O40          C44   1.287       .  A
O41          C44   1.286       .  A
O42          H52   0.990       .  S
O43          H56   0.990       .  S
C44        C3374   1.494       .  S
Zr67         O68   2.441       .  S
Zr67         O69   2.461       .  S
Zr67         O70   2.480       .  S
Zr67         O73   2.443       .  S
Zr67         O75   2.374       .  S
Zr67         O76   2.392       .  S
Zr67         O77   2.409       .  S
Zr67         O78   2.408       .  S
O68         H124   0.990       .  S
O68         H132   0.990       .  S
O69          C89   1.289       .  A
O70          C91   1.293       .  A
O71         Zr81   2.406       .  S
O71          C90   1.279       .  A
O72         Zr80   2.415       .  S
O72          C91   1.280       .  A
O73          C90   1.287       .  A
O74         Zr82   2.407       .  S
O74          C89   1.278       .  A
O75         Zr80   2.395       .  S
O75         Zr82   2.386       .  S
O76         Zr81   2.400       .  S
O76         Zr82   2.375       .  S
O76         H111   0.968       .  S
O77         Zr80   2.392       .  S
O77         Zr97   2.383       .  S
O77         H114   0.971       .  S
O78         Zr81   2.388       .  S
O78         Zr97   2.382       .  S
Zr79        O104   2.441       .  S
Zr79         O98   2.459       .  S
Zr79        O106   2.458       .  S
Zr79         O94   2.470       .  S
Zr79         O85   2.408       .  S
Zr79         O86   2.415       .  S
Zr79         O87   2.384       .  S
Zr79         O88   2.386       .  S
Zr80         O99   2.436       .  S
Zr80         O92   2.436       .  S
Zr80         O93   2.395       .  S
Zr80         O86   2.402       .  S
Zr80         O87   2.395       .  S
Zr81         O83   2.436       .  S
Zr81        O105   2.438       .  S
Zr81        O107   2.419       .  S
Zr81         O85   2.388       .  S
Zr81         O88   2.385       .  S
Zr82        O108   2.436       .  S
Zr82        O109   2.436       .  S
Zr82         O84   2.436       .  S
Zr82         O85   2.394       .  S
Zr82         O86   2.380       .  S
O83         H120   0.990       .  S
O84         H115   0.990       .  S
O84         H129   0.990       .  S
O86         H112   0.964       .  S
O87         Zr97   2.382       .  S
O88         Zr97   2.376       .  S
O88         H113   0.970       .  S
C89        C3388   1.491       .  S
C90        C3346   1.462       .  S
C91        C3360   1.491       .  S
O92         H128   0.990       .  S
O93          C95   1.278       .  A
O94          C95   1.291       .  A
C95        C3332   1.474       .  S
O96         Zr97   2.438       .  S
O96         H125   0.991       .  S
Zr97        O100   2.436       .  S
Zr97        O101   2.440       .  S
Zr97        O102   2.396       .  S
O98         C103   1.288       .  A
O99         H116   0.990       .  S
O99         H131   0.990       .  S
O100        H117   0.990       .  S
O101        H121   0.990       .  S
O101        H130   0.990       .  S
O102        C103   1.278       .  A
C103       C3405   1.494   1_565  S
O104        H123   0.991       .  S
O104        H127   0.990       .  S
O105        H119   0.990       .  S
O105        H126   0.990       .  S
O106        C110   1.290       .  A
O107        C110   1.282       .  A
O108        H118   0.990       .  S
O109        H122   0.990       .  S
C110       C3318   1.488       .  S
Zr133       O134   2.440       .  S
Zr133       O135   2.462       .  S
Zr133       O136   2.471       .  S
Zr133       O139   2.430       .  S
Zr133       O141   2.376       .  S
Zr133       O142   2.391       .  S
Zr133       O143   2.409       .  S
Zr133       O144   2.411       .  S
O134        H190   0.990       .  S
O134        H198   0.990       .  S
O135        C155   1.288       .  A
O136        C157   1.289       .  A
O137       Zr147   2.423       .  S
O137        C156   1.282       .  A
O138       Zr146   2.426       .  S
O138        C157   1.285       .  A
O139        C156   1.283       .  A
O140       Zr148   2.409       .  S
O140        C155   1.278       .  A
O141       Zr146   2.397       .  S
O141       Zr148   2.387       .  S
O142       Zr147   2.398       .  S
O142       Zr148   2.370       .  S
O142        H177   0.976       .  S
O143       Zr146   2.395       .  S
O143       Zr163   2.383       .  S
O143        H180   0.965       .  S
O144       Zr147   2.391       .  S
O144       Zr163   2.387       .  S
Zr145       O170   2.440       .  S
Zr145       O164   2.465       .  S
Zr145       O172   2.450       .  S
Zr145       O160   2.474       .  S
Zr145       O151   2.417       .  S
Zr145       O152   2.416       .  S
Zr145       O153   2.385       .  S
Zr145       O154   2.390       .  S
Zr146       O165   2.435       .  S
Zr146       O158   2.435       .  S
Zr146       O159   2.418       .  S
Zr146       O152   2.401       .  S
Zr146       O153   2.396       .  S
Zr147       O149   2.435       .  S
Zr147       O171   2.439       .  S
Zr147       O173   2.429       .  S
Zr147       O151   2.390       .  S
Zr147       O154   2.395       .  S
Zr148       O174   2.435       .  S
Zr148       O175   2.435       .  S
Zr148       O150   2.437       .  S
Zr148       O151   2.397       .  S
Zr148       O152   2.372       .  S
O149        H186   0.990       .  S
O150        H181   0.990       .  S
O150        H195   0.990       .  S
O152        H178   0.958       .  S
O153       Zr163   2.387       .  S
O154       Zr163   2.376       .  S
O154        H179   0.970       .  S
C155       C3276   1.486       .  S
C156       C3304   1.462       .  S
C157       C3447   1.497       .  S
O158        H194   0.990       .  S
O159        C161   1.284       .  A
O160        C161   1.290       .  A
C161       C3293   1.491       .  S
O162       Zr163   2.440       .  S
O162        H191   0.990       .  S
Zr163       O166   2.438       .  S
Zr163       O167   2.440       .  S
Zr163       O168   2.400       .  S
O164        C169   1.288   1_545  A
O165        H182   0.990       .  S
O165        H197   0.990       .  S
O166        H183   0.990       .  S
O167        H187   0.990       .  S
O167        H196   0.990       .  S
O168        C169   1.278   1_545  A
C169       C3265   1.498       .  S
O170        H189   0.990       .  S
O170        H193   0.990       .  S
O171        H185   0.990       .  S
O171        H192   0.990       .  S
O172        C176   1.287       .  A
O173        C176   1.284       .  A
O174        H184   0.990       .  S
O175        H188   0.990       .  S
C176       C3248   1.492       .  S
Zr199       O200   2.440       .  S
Zr199       O201   2.455       .  S
Zr199       O202   2.471       .  S
Zr199       O205   2.438       .  S
Zr199       O207   2.381       .  S
Zr199       O208   2.395       .  S
Zr199       O209   2.413       .  S
Zr199       O210   2.409       .  S
O200        H256   0.990       .  S
O200        H264   0.990       .  S
O201        C221   1.286       .  A
O202        C223   1.289       .  A
O203       Zr213   2.420       .  S
O203        C222   1.282       .  A
O204       Zr212   2.429       .  S
O204        C223   1.285       .  A
O205        C222   1.284       .  A
O206       Zr214   2.402       .  S
O206        C221   1.279       .  A
O207       Zr212   2.398       .  S
O207       Zr214   2.389       .  S
O208       Zr213   2.399       .  S
O208       Zr214   2.373       .  S
O208        H243   0.963       .  S
O209       Zr212   2.393       .  S
O209       Zr229   2.381       .  S
O209        H246   0.967       .  S
O210       Zr213   2.390       .  S
O210       Zr229   2.381       .  S
Zr211       O236   2.442       .  S
Zr211       O230   2.453       .  S
Zr211       O238   2.467       .  S
Zr211       O226   2.468       .  S
Zr211       O217   2.406       .  S
Zr211       O218   2.417       .  S
Zr211       O219   2.386       .  S
Zr211       O220   2.385       .  S
Zr212       O231   2.435       .  S
Zr212       O224   2.435       .  S
Zr212       O225   2.416       .  S
Zr212       O218   2.404       .  S
Zr212       O219   2.396       .  S
Zr213       O215   2.435       .  S
Zr213       O237   2.438       .  S
Zr213       O239   2.428       .  S
Zr213       O217   2.387       .  S
Zr213       O220   2.389       .  S
Zr214       O240   2.435       .  S
Zr214       O241   2.437       .  S
Zr214       O216   2.437       .  S
Zr214       O217   2.390       .  S
Zr214       O218   2.375       .  S
O215        H252   0.990       .  S
O216        H247   0.990       .  S
O216        H261   0.990       .  S
O218        H244   0.961       .  S
O219       Zr229   2.386       .  S
O220       Zr229   2.377       .  S
O220        H245   0.965       .  S
C221       C3262   1.496       .  S
C222       C3234   1.465       .  S
C223       C3363   1.497       .  S
O224        H260   0.990       .  S
O225        C227   1.281       .  A
O226        C227   1.290       .  A
C227       C3220   1.477       .  S
O228       Zr229   2.440       .  S
O228        H257   0.990       .  S
Zr229       O232   2.437       .  S
Zr229       O233   2.440       .  S
Zr229       O234   2.397       .  S
O230        C235   1.287       .  A
O231        H248   0.990       .  S
O231        H263   0.990       .  S
O232        H249   0.990       .  S
O233        H253   0.990       .  S
O233        H262   0.989       .  S
O234        C235   1.278       .  A
C235       C3279   1.479       .  S
O236        H255   0.991       .  S
O236        H259   0.990       .  S
O237        H251   0.990       .  S
O237        H258   0.990       .  S
O238        C242   1.291       .  A
O239        C242   1.284       .  A
O240        H250   0.990       .  S
O241        H254   0.990       .  S
C242       C3206   1.500       .  S
Zr265       O266   2.441       .  S
Zr265       O267   2.447       .  S
Zr265       O268   2.471       .  S
Zr265       O271   2.446       .  S
Zr265       O273   2.378       .  S
Zr265       O274   2.392       .  S
Zr265       O275   2.407       .  S
Zr265       O276   2.403       .  S
O266        H322   0.990       .  S
O266        H330   0.990       .  S
O267        C287   1.285       .  A
O268        C289   1.291       .  A
O269       Zr279   2.417       .  S
O269        C288   1.282       .  A
O270       Zr278   2.419       .  S
O270        C289   1.281       .  A
O271        C288   1.289       .  A
O272       Zr280   2.410       .  S
O272        C287   1.280       .  A
O273       Zr278   2.396       .  S
O273       Zr280   2.381       .  S
O274       Zr279   2.399       .  S
O274       Zr280   2.372       .  S
O274        H309   0.965       .  S
O275       Zr278   2.395       .  S
O275       Zr295   2.381       .  S
O275        H312   0.966       .  S
O276       Zr279   2.390       .  S
O276       Zr295   2.382       .  S
Zr277       O302   2.441       .  S
Zr277       O296   2.463       .  S
Zr277       O304   2.450       .  S
Zr277       O292   2.487       .  S
Zr277       O283   2.413       .  S
Zr277       O284   2.415       .  S
Zr277       O285   2.388       .  S
Zr277       O286   2.390       .  S
Zr278       O297   2.435       .  S
Zr278       O290   2.435       .  S
Zr278       O291   2.406       .  S
Zr278       O284   2.401       .  S
Zr278       O285   2.396       .  S
Zr279       O281   2.435       .  S
Zr279       O303   2.436       .  S
Zr279       O305   2.419       .  S
Zr279       O283   2.392       .  S
Zr279       O286   2.387       .  S
Zr280       O306   2.436       .  S
Zr280       O307   2.435       .  S
Zr280       O282   2.442       .  S
Zr280       O283   2.396       .  S
Zr280       O284   2.376       .  S
O281        H318   0.990       .  S
O282        H313   0.990       .  S
O282        H327   0.990       .  S
O284        H310   0.958       .  S
O285       Zr295   2.389       .  S
O286       Zr295   2.377       .  S
O286        H311   0.963       .  S
C287       C3167   1.495       .  S
C288       C3433   1.481       .  S
C289       C3195   1.491       .  S
O290        H326   0.990       .  S
O291        C293   1.282       .  A
O292        C293   1.292       .  A
C293       C3178   1.494       .  S
O294       Zr295   2.439       .  S
O294        H323   0.991       .  S
Zr295       O298   2.437       .  S
Zr295       O299   2.440       .  S
Zr295       O300   2.391       .  S
O296        C301   1.288   1_545  A
O297        H314   0.990       .  S
O297        H329   0.990       .  S
O298        H315   0.990       .  S
O299        H319   0.990       .  S
O299        H328   0.990       .  S
O300        C301   1.277   1_545  A
C301       C3153   1.483       .  S
O302        H321   0.990       .  S
O302        H325   0.990       .  S
O303        H317   0.990       .  S
O303        H324   0.990       .  S
O304        C308   1.288       .  A
O305        C308   1.282       .  A
O306        H316   0.990       .  S
O307        H320   0.990       .  S
C308       C3139   1.488       .  S
Zr331       O332   2.441       .  S
Zr331       O333   2.459       .  S
Zr331       O334   2.470       .  S
Zr331       O337   2.430       .  S
Zr331       O339   2.375       .  S
Zr331       O340   2.394       .  S
Zr331       O341   2.409       .  S
Zr331       O342   2.412       .  S
O332        H388   0.990       .  S
O332        H396   0.990       .  S
O333        C353   1.287       .  A
O334        C355   1.289       .  A
O335       Zr345   2.413       .  S
O335        C354   1.281       .  A
O336       Zr344   2.414       .  S
O336        C355   1.282       .  A
O337        C354   1.284       .  A
O338       Zr346   2.392       .  S
O338        C353   1.277       .  A
O339       Zr344   2.391       .  S
O339       Zr346   2.388       .  S
O340       Zr345   2.397       .  S
O340       Zr346   2.367       .  S
O340        H375   0.973       .  S
O341       Zr344   2.392       .  S
O341       Zr361   2.379       .  S
O341        H378   0.970       .  S
O342       Zr345   2.390       .  S
O342       Zr361   2.387       .  S
Zr343       O368   2.441       .  S
Zr343       O362   2.458       .  S
Zr343       O370   2.448       .  S
Zr343       O358   2.468       .  S
Zr343       O349   2.409       .  S
Zr343       O350   2.411       .  S
Zr343       O351   2.385       .  S
Zr343       O352   2.391       .  S
Zr344       O363   2.436       .  S
Zr344       O356   2.433       .  S
Zr344       O357   2.400       .  S
Zr344       O350   2.402       .  S
Zr344       O351   2.399       .  S
Zr345       O347   2.435       .  S
Zr345       O369   2.436       .  S
Zr345       O371   2.428       .  S
Zr345       O349   2.383       .  S
Zr345       O352   2.385       .  S
Zr346       O372   2.435       .  S
Zr346       O373   2.436       .  S
Zr346       O348   2.437       .  S
Zr346       O349   2.383       .  S
Zr346       O350   2.368       .  S
O347        H384   0.990       .  S
O348        H379   0.990       .  S
O348        H393   0.990       .  S
O350        H376   0.963       .  S
O351       Zr361   2.389       .  S
O352       Zr361   2.375       .  S
O352        H377   0.964       .  S
C353       C3150   1.487       .  S
C354       C3349   1.468       .  S
C355       C3122   1.486       .  S
O356        H392   0.990       .  S
O357        C359   1.278       .  A
O358        C359   1.289       .  A
C359       C3111   1.464       .  S
O360       Zr361   2.440       .  S
O360        H389   0.990       .  S
Zr361       O364   2.437       .  S
Zr361       O365   2.440       .  S
Zr361       O366   2.399       .  S
O362        C367   1.287       .  A
O363        H380   0.990       .  S
O363        H395   0.990       .  S
O364        H381   0.990       .  S
O365        H385   0.990       .  S
O365        H394   0.990       .  S
O366        C367   1.279       .  A
C367       C3164   1.495       .  S
O368        H387   0.991       .  S
O368        H391   0.990       .  S
O369        H383   0.990       .  S
O369        H390   0.990       .  S
O370        C374   1.286       .  A
O371        C374   1.286       .  A
O372        H382   0.990       .  S
O373        H386   0.990       .  S
C374       C3094   1.489       .  S
Zr397       O398   2.436       .  S
Zr397       O399   2.464       .  S
Zr397       O400   2.475       .  S
Zr397       O403   2.447       .  S
Zr397       O405   2.380       .  S
Zr397       O406   2.391       .  S
Zr397       O407   2.412       .  S
Zr397       O408   2.412       .  S
O398        H454   0.990       .  S
O398        H462   0.990       .  S
O399        C419   1.290       .  A
O400        C421   1.289       .  A
O401       Zr411   2.416       .  S
O401        C420   1.284       .  A
O402       Zr410   2.426       .  S
O402        C421   1.285       .  A
O403        C420   1.286       .  A
O404       Zr412   2.390       .  S
O404        C419   1.274       .  A
O405       Zr410   2.399       .  S
O405       Zr412   2.393       .  S
O406       Zr411   2.394       .  S
O406       Zr412   2.370       .  S
O406        H441   0.964       .  S
O407       Zr410   2.395       .  S
O407       Zr427   2.378       .  S
O407        H444   0.962       .  S
O408       Zr411   2.392       .  S
O408       Zr427   2.388       .  S
Zr409       O434   2.441       .  S
Zr409       O428   2.457       .  S
Zr409       O436   2.447       .  S
Zr409       O424   2.467       .  S
Zr409       O415   2.407       .  S
Zr409       O416   2.414       .  S
Zr409       O417   2.382       .  S
Zr409       O418   2.392       .  S
Zr410       O429   2.435       .  S
Zr410       O422   2.435       .  S
Zr410       O423   2.412       .  S
Zr410       O416   2.404       .  S
Zr410       O417   2.396       .  S
Zr411       O413   2.436       .  S
Zr411       O435   2.437       .  S
Zr411       O437   2.432       .  S
Zr411       O415   2.386       .  S
Zr411       O418   2.389       .  S
Zr412       O438   2.436       .  S
Zr412       O439   2.436       .  S
Zr412       O414   2.436       .  S
Zr412       O415   2.383       .  S
Zr412       O416   2.378       .  S
O413        H450   0.990       .  S
O414        H445   0.990       .  S
O414        H459   0.990       .  S
O416        H442   0.966       .  S
O417       Zr427   2.385       .  S
O418       Zr427   2.373       .  S
O418        H443   0.965       .  S
C419       C3066   1.491       .  S
C420       C3307   1.488       .  S
C421       C3192   1.495       .  S
O422        H458   0.990       .  S
O423        C425   1.281       .  A
O424        C425   1.290       .  A
C425       C3080   1.477       .  S
O426       Zr427   2.439       .  S
O426        H455   0.991       .  S
Zr427       O430   2.438       .  S
Zr427       O431   2.439       .  S
Zr427       O432   2.396       .  S
O428        C433   1.286       .  A
O429        H446   0.990       .  S
O429        H461   0.990       .  S
O430        H447   0.990       .  S
O431        H451   0.990       .  S
O431        H460   0.990       .  S
O432        C433   1.278       .  A
C433       C3052   1.493       .  S
O434        H453   0.991       .  S
O434        H457   0.990       .  S
O435        H449   0.990       .  S
O435        H456   0.990       .  S
O436        C440   1.286       .  A
O437        C440   1.286       .  A
O438        H448   0.990       .  S
O439        H452   0.990       .  S
C440       C3038   1.488       .  S
Zr463       O464   2.441       .  S
Zr463       O465   2.447       .  S
Zr463       O466   2.468       .  S
Zr463       O469   2.438       .  S
Zr463       O471   2.378       .  S
Zr463       O472   2.392       .  S
Zr463       O473   2.409       .  S
Zr463       O474   2.411       .  S
O464        H520   0.990       .  S
O464        H528   0.991       .  S
O465        C485   1.285       .  A
O466        C487   1.291       .  A
O467       Zr477   2.421       .  S
O467        C486   1.284       .  A
O468       Zr476   2.409       .  S
O468        C487   1.279       .  A
O469        C486   1.285       .  A
O470       Zr478   2.402       .  S
O470        C485   1.279       .  A
O471       Zr476   2.398       .  S
O471       Zr478   2.387       .  S
O472       Zr477   2.394       .  S
O472       Zr478   2.368       .  S
O472        H507   0.970       .  S
O473       Zr476   2.396       .  S
O473       Zr493   2.378       .  S
O473        H510   0.967       .  S
O474       Zr477   2.390       .  S
O474       Zr493   2.385       .  S
Zr475       O500   2.441       .  S
Zr475       O494   2.465       .  S
Zr475       O502   2.455       .  S
Zr475       O490   2.471       .  S
Zr475       O481   2.410       .  S
Zr475       O482   2.417       .  S
Zr475       O483   2.382       .  S
Zr475       O484   2.395       .  S
Zr476       O495   2.436       .  S
Zr476       O488   2.434       .  S
Zr476       O489   2.407       .  S
Zr476       O482   2.396       .  S
Zr476       O483   2.390       .  S
Zr477       O479   2.436       .  S
Zr477       O501   2.437       .  S
Zr477       O503   2.429       .  S
Zr477       O481   2.382       .  S
Zr477       O484   2.391       .  S
Zr478       O504   2.436       .  S
Zr478       O505   2.436       .  S
Zr478       O480   2.437       .  S
Zr478       O481   2.388       .  S
Zr478       O482   2.373       .  S
O479        H516   0.990       .  S
O480        H511   0.990       .  S
O480        H525   0.990       .  S
O482        H508   0.965       .  S
O483       Zr493   2.392       .  S
O484       Zr493   2.382       .  S
O484        H509   0.965       .  S
C485       C3055   1.492       .  S
C486       C3237   1.474       .  S
C487       C3125   1.489       .  S
O488        H524   0.990       .  S
O489        C491   1.281       .  A
O490        C491   1.289       .  A
C491       C3024   1.480       .  S
O492       Zr493   2.438       .  S
O492        H521   0.990       .  S
Zr493       O496   2.437       .  S
Zr493       O497   2.440       .  S
Zr493       O498   2.390       .  S
O494        C499   1.291       .  A
O495        H512   0.990       .  S
O495        H527   0.990       .  S
O496        H513   0.990       .  S
O497        H517   0.990       .  S
O497        H526   0.990       .  S
O498        C499   1.274       .  A
C499       C3069   1.490       .  S
O500        H519   0.990       .  S
O500        H523   0.990       .  S
O501        H515   0.990       .  S
O501        H522   0.990       .  S
O502        C506   1.287       .  A
O503        C506   1.286       .  A
O504        H514   0.990       .  S
O505        H518   0.990       .  S
C506       C3010   1.495       .  S
Zr529       O530   2.441       .  S
Zr529       O531   2.441       .  S
Zr529       O532   2.458       .  S
Zr529       O535   2.436       .  S
Zr529       O537   2.377       .  S
Zr529       O538   2.386       .  S
Zr529       O539   2.408   1_565  S
Zr529       O540   2.404   1_565  S
O530        H586   0.990       .  S
O530        H594   0.991       .  S
O531        C551   1.284       .  A
O532        C553   1.288       .  A
O533       Zr543   2.416       .  S
O533        C552   1.281   1_545  A
O534       Zr542   2.420   1_565  S
O534        C553   1.281       .  A
O535        C552   1.286       .  A
O536       Zr544   2.413       .  S
O536        C551   1.281       .  A
O537       Zr542   2.394   1_565  S
O537       Zr544   2.381       .  S
O538       Zr543   2.393   1_565  S
O538       Zr544   2.370       .  S
O538        H573   0.967       .  S
O539       Zr542   2.398       .  S
O539       Zr559   2.385       .  S
O539        H576   0.962       .  S
O540       Zr543   2.393       .  S
O540       Zr559   2.390       .  S
Zr541       O566   2.442       .  S
Zr541       O560   2.463       .  S
Zr541       O568   2.458       .  S
Zr541       O556   2.479       .  S
Zr541       O547   2.411       .  S
Zr541       O548   2.415       .  S
Zr541       O549   2.382       .  S
Zr541       O550   2.385       .  S
Zr542       O561   2.436       .  S
Zr542       O554   2.435   1_545  S
Zr542       O555   2.405       .  S
Zr542       O548   2.402       .  S
Zr542       O549   2.400       .  S
Zr543       O545   2.435       .  S
Zr543       O567   2.436   1_545  S
Zr543       O569   2.417       .  S
Zr543       O547   2.392       .  S
Zr543       O550   2.389       .  S
Zr544       O570   2.435       .  S
Zr544       O571   2.436       .  S
Zr544       O546   2.437       .  S
Zr544       O547   2.395   1_565  S
Zr544       O548   2.383   1_565  S
O545        H582   0.990       .  S
O546        H577   0.990       .  S
O546        H591   0.990       .  S
O548        H574   0.964       .  S
O549       Zr559   2.387       .  S
O550       Zr559   2.377       .  S
O550        H575   0.967       .  S
C551       C2957   1.488       .  S
C552       C2982   1.477       .  S
C553       C2999   1.480       .  S
O554        H590   0.990   1_565  S
O555        C557   1.279       .  A
O556        C557   1.292       .  A
C557       C3290   1.485       .  S
O558       Zr559   2.438       .  S
O558        H587   0.990       .  S
Zr559       O562   2.437       .  S
Zr559       O563   2.439       .  S
Zr559       O564   2.401       .  S
O560        C565   1.290       .  A
O561        H578   0.990       .  S
O561        H593   0.990       .  S
O562        H579   0.990       .  S
O563        H583   0.990       .  S
O563        H592   0.990       .  S
O564        C565   1.277       .  A
C565       C2971   1.486       .  S
O566        H585   0.990       .  S
O566        H589   0.990       .  S
O567        H581   0.990       .  S
O567        H588   0.990   1_565  S
O568        C572   1.290       .  A
O569        C572   1.281       .  A
O570        H580   0.990       .  S
O571        H584   0.990   1_565  S
C572       C2943   1.490       .  S
Zr595       O596   2.440       .  S
Zr595       O597   2.464       .  S
Zr595       O598   2.472       .  S
Zr595       O601   2.443       .  S
Zr595       O603   2.374       .  S
Zr595       O604   2.395       .  S
Zr595       O605   2.411       .  S
Zr595       O606   2.410       .  S
O596        H652   0.990       .  S
O596        H660   0.990       .  S
O597        C617   1.289       .  A
O598        C619   1.291       .  A
O599       Zr609   2.423       .  S
O599        C618   1.285       .  A
O600       Zr608   2.414       .  S
O600        C619   1.280       .  A
O601        C618   1.286       .  A
O602       Zr610   2.398       .  S
O602        C617   1.276       .  A
O603       Zr608   2.393       .  S
O603       Zr610   2.387       .  S
O604       Zr609   2.399       .  S
O604       Zr610   2.376       .  S
O604        H639   0.966       .  S
O605       Zr608   2.390       .  S
O605       Zr625   2.383       .  S
O605        H642   0.961       .  S
O606       Zr609   2.387       .  S
O606       Zr625   2.384       .  S
Zr607       O632   2.440       .  S
Zr607       O626   2.456       .  S
Zr607       O634   2.451       .  S
Zr607       O622   2.474       .  S
Zr607       O613   2.411       .  S
Zr607       O614   2.416       .  S
Zr607       O615   2.384       .  S
Zr607       O616   2.391       .  S
Zr608       O627   2.435       .  S
Zr608       O620   2.435       .  S
Zr608       O621   2.401       .  S
Zr608       O614   2.400       .  S
Zr608       O615   2.392       .  S
Zr609       O611   2.435       .  S
Zr609       O633   2.439       .  S
Zr609       O635   2.430       .  S
Zr609       O613   2.390       .  S
Zr609       O616   2.393       .  S
Zr610       O636   2.435       .  S
Zr610       O637   2.435       .  S
Zr610       O612   2.437       .  S
Zr610       O613   2.393       .  S
Zr610       O614   2.375       .  S
O611        H648   0.990       .  S
O612        H643   0.990       .  S
O612        H657   0.990       .  S
O614        H640   0.964       .  S
O615       Zr625   2.383       .  S
O616       Zr625   2.377       .  S
O616        H641   0.967       .  S
C617       C2968   1.487       .  S
C618       C2915   1.482       .  S
C619       C2926   1.488       .  S
O620        H656   0.990       .  S
O621        C623   1.281       .  A
O622        C623   1.290       .  A
C623       C3223   1.492       .  S
O624       Zr625   2.440       .  S
O624        H653   0.990       .  S
Zr625       O628   2.437       .  S
Zr625       O629   2.440       .  S
Zr625       O630   2.400       .  S
O626        C631   1.286       .  A
O627        H644   0.990       .  S
O627        H659   0.990       .  S
O628        H645   0.990       .  S
O629        H649   0.990       .  S
O629        H658   0.990       .  S
O630        C631   1.279       .  A
C631       C2954   1.490       .  S
O632        H651   0.990       .  S
O632        H655   0.990       .  S
O633        H647   0.990       .  S
O633        H654   0.990       .  S
O634        C638   1.288       .  A
O635        C638   1.284       .  A
O636        H646   0.990       .  S
O637        H650   0.990       .  S
C638       C2898   1.490       .  S
Zr661       O662   2.438       .  S
Zr661       O663   2.457       .  S
Zr661       O664   2.465       .  S
Zr661       O667   2.430       .  S
Zr661       O669   2.375       .  S
Zr661       O670   2.390       .  S
Zr661       O671   2.406       .  S
Zr661       O672   2.413       .  S
O662        H718   0.990       .  S
O662        H726   0.989       .  S
O663        C683   1.287       .  A
O664        C685   1.289       .  A
O665       Zr675   2.419       .  S
O665        C684   1.282       .  A
O666       Zr674   2.430       .  S
O666        C685   1.286       .  A
O667        C684   1.284       .  A
O668       Zr676   2.401       .  S
O668        C683   1.278       .  A
O669       Zr674   2.391       .  S
O669       Zr676   2.384       .  S
O670       Zr675   2.399       .  S
O670       Zr676   2.369       .  S
O670        H705   0.964       .  S
O671       Zr674   2.396       .  S
O671       Zr691   2.371       .  S
O671        H708   0.968       .  S
O672       Zr675   2.394       .  S
O672       Zr691   2.396       .  S
Zr673       O698   2.441       .  S
Zr673       O692   2.470       .  S
Zr673       O700   2.461       .  S
Zr673       O688   2.472       .  S
Zr673       O679   2.404       .  S
Zr673       O680   2.414       .  S
Zr673       O681   2.381       .  S
Zr673       O682   2.390       .  S
Zr674       O693   2.436       .  S
Zr674       O686   2.435       .  S
Zr674       O687   2.408       .  S
Zr674       O680   2.406       .  S
Zr674       O681   2.403       .  S
Zr675       O677   2.435       .  S
Zr675       O699   2.437       .  S
Zr675       O701   2.436       .  S
Zr675       O679   2.382       .  S
Zr675       O682   2.391       .  S
Zr676       O702   2.437       .  S
Zr676       O703   2.434       .  S
Zr676       O678   2.437       .  S
Zr676       O679   2.384       .  S
Zr676       O680   2.377       .  S
O677        H714   0.990       .  S
O678        H709   0.990       .  S
O678        H723   0.990       .  S
O680        H706   0.967       .  S
O681       Zr691   2.385       .  S
O682       Zr691   2.381       .  S
O682        H707   0.965       .  S
C683       C2856   1.494       .  S
C684       C2887   1.468       .  S
C685       C2929   1.495       .  S
O686        H722   0.990       .  S
O687        C689   1.280       .  A
O688        C689   1.290       .  A
C689       C3419   1.468       .  S
O690       Zr691   2.438       .  S
O690        H719   0.990       .  S
Zr691       O694   2.438       .  S
Zr691       O695   2.438       .  S
Zr691       O696   2.398       .  S
O692        C697   1.291       .  A
O693        H710   0.990       .  S
O693        H725   0.990       .  S
O694        H711   0.990       .  S
O695        H715   0.990       .  S
O695        H724   0.990       .  S
O696        C697   1.276       .  A
C697       C2870   1.489       .  S
O698        H717   0.990       .  S
O698        H721   0.990       .  S
O699        H713   0.990       .  S
O699        H720   0.990       .  S
O700        C704   1.289       .  A
O701        C704   1.287       .  A
O702        H712   0.990       .  S
O703        H716   0.990       .  S
C704       C2842   1.495       .  S
Zr727       O728   2.439       .  S
Zr727       O729   2.465   1_565  S
Zr727       O730   2.471       .  S
Zr727       O733   2.440       .  S
Zr727       O735   2.377       .  S
Zr727       O736   2.389       .  S
Zr727       O737   2.413       .  S
Zr727       O738   2.408       .  S
O728        H784   0.990   1_565  S
O728        H792   0.990       .  S
O729        C749   1.290       .  A
O730        C751   1.289       .  A
O731       Zr741   2.411       .  S
O731        C750   1.280       .  A
O732       Zr740   2.421       .  S
O732        C751   1.284       .  A
O733        C750   1.285       .  A
O734       Zr742   2.400   1_545  S
O734        C749   1.277       .  A
O735       Zr740   2.397       .  S
O735       Zr742   2.389       .  S
O736       Zr741   2.396       .  S
O736       Zr742   2.372       .  S
O736        H771   0.972       .  S
O737       Zr740   2.392       .  S
O737       Zr757   2.382       .  S
O737        H774   0.969       .  S
O738       Zr741   2.386       .  S
O738       Zr757   2.383       .  S
Zr739       O764   2.441       .  S
Zr739       O758   2.459       .  S
Zr739       O766   2.444       .  S
Zr739       O754   2.468       .  S
Zr739       O745   2.409       .  S
Zr739       O746   2.417       .  S
Zr739       O747   2.387       .  S
Zr739       O748   2.386       .  S
Zr740       O759   2.436       .  S
Zr740       O752   2.435       .  S
Zr740       O753   2.410       .  S
Zr740       O746   2.398       .  S
Zr740       O747   2.396       .  S
Zr741       O743   2.434       .  S
Zr741       O765   2.436       .  S
Zr741       O767   2.419       .  S
Zr741       O745   2.389       .  S
Zr741       O748   2.387       .  S
Zr742       O768   2.434       .  S
Zr742       O769   2.436       .  S
Zr742       O744   2.438       .  S
Zr742       O745   2.393       .  S
Zr742       O746   2.373       .  S
O743        H780   0.990       .  S
O744        H775   0.990   1_565  S
O744        H789   0.990   1_565  S
O746        H772   0.959       .  S
O747       Zr757   2.386       .  S
O748       Zr757   2.374       .  S
O748        H773   0.967       .  S
C749       C2873   1.489       .  S
C750       C2828   1.464       .  S
C751       C2996   1.497       .  S
O752        H788   0.990       .  S
O753        C755   1.282       .  A
O754        C755   1.289       .  A
C755       C3335   1.490       .  S
O756       Zr757   2.439       .  S
O756        H785   0.991       .  S
Zr757       O760   2.437       .  S
Zr757       O761   2.440       .  S
Zr757       O762   2.400       .  S
O758        C763   1.287       .  A
O759        H776   0.990       .  S
O759        H791   0.990       .  S
O760        H777   0.990       .  S
O761        H781   0.990       .  S
O761        H790   0.990       .  S
O762        C763   1.279       .  A
C763       C2859   1.491       .  S
O764        H783   0.990       .  S
O764        H787   0.990       .  S
O765        H779   0.990       .  S
O765        H786   0.990       .  S
O766        C770   1.287       .  A
O767        C770   1.282       .  A
O768        H778   0.990   1_565  S
O769        H782   0.990       .  S
C770       C2814   1.485       .  S
Zr793       O794   2.440       .  S
Zr793       O795   2.455       .  S
Zr793       O796   2.458       .  S
Zr793       O799   2.425       .  S
Zr793       O801   2.376       .  S
Zr793       O802   2.390       .  S
Zr793       O803   2.411   1_565  S
Zr793       O804   2.407   1_565  S
O794        H850   0.990       .  S
O794        H858   0.990       .  S
O795        C815   1.286       .  A
O796        C817   1.286       .  A
O797       Zr807   2.423       .  S
O797        C816   1.282   1_545  A
O798       Zr806   2.430       .  S
O798        C817   1.286   1_545  A
O799        C816   1.283       .  A
O800       Zr808   2.398       .  S
O800        C815   1.278       .  A
O801       Zr806   2.397   1_565  S
O801       Zr808   2.386       .  S
O802       Zr807   2.403   1_565  S
O802       Zr808   2.377       .  S
O802        H837   0.967       .  S
O803       Zr806   2.395       .  S
O803       Zr823   2.382       .  S
O803        H840   0.966       .  S
O804       Zr807   2.389       .  S
O804       Zr823   2.383       .  S
Zr805       O830   2.441       .  S
Zr805       O824   2.447       .  S
Zr805       O832   2.453       .  S
Zr805       O820   2.467       .  S
Zr805       O811   2.405       .  S
Zr805       O812   2.414       .  S
Zr805       O813   2.384       .  S
Zr805       O814   2.388       .  S
Zr806       O825   2.435       .  S
Zr806       O818   2.434   1_545  S
Zr806       O819   2.421       .  S
Zr806       O812   2.403       .  S
Zr806       O813   2.395       .  S
Zr807       O809   2.435       .  S
Zr807       O831   2.436       .  S
Zr807       O833   2.431       .  S
Zr807       O811   2.392       .  S
Zr807       O814   2.390       .  S
Zr808       O834   2.437       .  S
Zr808       O835   2.436       .  S
Zr808       O810   2.438       .  S
Zr808       O811   2.389   1_565  S
Zr808       O812   2.376   1_565  S
O809        H846   0.990       .  S
O810        H841   0.990       .  S
O810        H855   0.990       .  S
O812        H838   0.963       .  S
O813       Zr823   2.383       .  S
O814       Zr823   2.376       .  S
O814        H839   0.968       .  S
C815       C2772   1.492       .  S
C816       C2831   1.466       .  S
C817       C2800   1.492       .  S
O818        H854   0.990       .  S
O819        C821   1.282       .  A
O820        C821   1.290       .  A
C821       C3181   1.483       .  S
O822       Zr823   2.439       .  S
O822        H851   0.991       .  S
Zr823       O826   2.437       .  S
Zr823       O827   2.440       .  S
Zr823       O828   2.398       .  S
O824        C829   1.285       .  A
O825        H842   0.990       .  S
O825        H857   0.990       .  S
O826        H843   0.990       .  S
O827        H847   0.990       .  S
O827        H856   0.990       .  S
O828        C829   1.279       .  A
C829       C2786   1.491       .  S
O830        H849   0.991       .  S
O830        H853   0.990       .  S
O831        H845   0.990       .  S
O831        H852   0.990       .  S
O832        C836   1.289       .  A
O833        C836   1.284       .  A
O834        H844   0.990       .  S
O835        H848   0.990   1_565  S
C836       C2761   1.486       .  S
Zr859       O860   2.441       .  S
Zr859       O861   2.444       .  S
Zr859       O862   2.464       .  S
Zr859       O865   2.435       .  S
Zr859       O867   2.376       .  S
Zr859       O868   2.391       .  S
Zr859       O869   2.404       .  S
Zr859       O870   2.403       .  S
O860        H916   0.990       .  S
O860        H924   0.990       .  S
O861        C881   1.284       .  A
O862        C883   1.290       .  A
O863       Zr873   2.419       .  S
O863        C882   1.282       .  A
O864       Zr872   2.417       .  S
O864        C883   1.280       .  A
O865        C882   1.286       .  A
O866       Zr874   2.401       .  S
O866        C881   1.278       .  A
O867       Zr872   2.398       .  S
O867       Zr874   2.384       .  S
O868       Zr873   2.397       .  S
O868       Zr874   2.366       .  S
O868        H903   0.966       .  S
O869       Zr872   2.393       .  S
O869       Zr889   2.385       .  S
O869        H906   0.969       .  S
O870       Zr873   2.389       .  S
O870       Zr889   2.379       .  S
Zr871       O896   2.442       .  S
Zr871       O890   2.466       .  S
Zr871       O898   2.450       .  S
Zr871       O886   2.466       .  S
Zr871       O877   2.411       .  S
Zr871       O878   2.415       .  S
Zr871       O879   2.386       .  S
Zr871       O880   2.389       .  S
Zr872       O891   2.435       .  S
Zr872       O884   2.432       .  S
Zr872       O885   2.402       .  S
Zr872       O878   2.405       .  S
Zr872       O879   2.394       .  S
Zr873       O875   2.435       .  S
Zr873       O897   2.437       .  S
Zr873       O899   2.428       .  S
Zr873       O877   2.385       .  S
Zr873       O880   2.388       .  S
Zr874       O900   2.435       .  S
Zr874       O901   2.436       .  S
Zr874       O876   2.437       .  S
Zr874       O877   2.391       .  S
Zr874       O878   2.369       .  S
O875        H912   0.990       .  S
O876        H907   0.990       .  S
O876        H921   0.990       .  S
O878        H904   0.965       .  S
O879       Zr889   2.389       .  S
O880       Zr889   2.379       .  S
O880        H905   0.965       .  S
C881       C2789   1.491       .  S
C882       C2884   1.469       .  S
C883       C2744   1.491       .  S
O884        H920   0.990       .  S
O885        C887   1.278       .  A
O886        C887   1.289       .  A
C887       C3108   1.462       .  S
O888       Zr889   2.439       .  S
O888        H917   0.990       .  S
Zr889       O892   2.437       .  S
Zr889       O893   2.441       .  S
Zr889       O894   2.389       .  S
O890        C895   1.288       .  A
O891        H908   0.990       .  S
O891        H923   0.990       .  S
O892        H909   0.990       .  S
O893        H913   0.990       .  S
O893        H922   0.990       .  S
O894        C895   1.277       .  A
C895       C2775   1.494       .  S
O896        H915   0.991       .  S
O896        H919   0.990       .  S
O897        H911   0.990       .  S
O897        H918   0.990       .  S
O898        C902   1.286       .  A
O899        C902   1.286       .  A
O900        H910   0.990       .  S
O901        H914   0.990       .  S
C902       C2730   1.491       .  S
Zr925       O926   2.440       .  S
Zr925       O927   2.445       .  S
Zr925       O928   2.469       .  S
Zr925       O931   2.441       .  S
Zr925       O933   2.382       .  S
Zr925       O934   2.391       .  S
Zr925       O935   2.408       .  S
Zr925       O936   2.403       .  S
O926        H982   0.990       .  S
O926        H990   0.990       .  S
O927        C947   1.284       .  A
O928        C949   1.289       .  A
O929       Zr939   2.411       .  S
O929        C948   1.281       .  A
O930       Zr938   2.424       .  S
O930        C949   1.284       .  A
O931        C948   1.287       .  A
O932       Zr940   2.402       .  S
O932        C947   1.278       .  A
O933       Zr938   2.396       .  S
O933       Zr940   2.387       .  S
O934       Zr939   2.391       .  S
O934       Zr940   2.368       .  S
O934        H969   0.967       .  S
O935       Zr938   2.396       .  S
O935       Zr955   2.381       .  S
O935        H972   0.960       .  S
O936       Zr939   2.391       .  S
O936       Zr955   2.383       .  S
Zr937       O962   2.440       .  S
Zr937       O956   2.470       .  S
Zr937       O964   2.459       .  S
Zr937       O952   2.478       .  S
Zr937       O943   2.411       .  S
Zr937       O944   2.420       .  S
Zr937       O945   2.389       .  S
Zr937       O946   2.391       .  S
Zr938       O957   2.435       .  S
Zr938       O950   2.435       .  S
Zr938       O951   2.414       .  S
Zr938       O944   2.398       .  S
Zr938       O945   2.397       .  S
Zr939       O941   2.435       .  S
Zr939       O963   2.437       .  S
Zr939       O965   2.416       .  S
Zr939       O943   2.384       .  S
Zr939       O946   2.391       .  S
Zr940       O966   2.436       .  S
Zr940       O967   2.436       .  S
Zr940       O942   2.437       .  S
Zr940       O943   2.389       .  S
Zr940       O944   2.373       .  S
O941        H978   0.990       .  S
O942        H973   0.990       .  S
O942        H987   0.990       .  S
O944        H970   0.958       .  S
O945       Zr955   2.391       .  S
O946       Zr955   2.381       .  S
O946        H971   0.969       .  S
C947       C2702   1.491       .  S
C948       C2912   1.481       .  S
C949       C2747   1.490       .  S
O950        H986   0.990       .  S
O951        C953   1.283       .  A
O952        C953   1.290       .  A
C953       C3083   1.496       .  S
O954       Zr955   2.438       .  S
O954        H983   0.991       .  S
Zr955       O958   2.439       .  S
Zr955       O959   2.439       .  S
Zr955       O960   2.391       .  S
O956        C961   1.291       .  A
O957        H974   0.990       .  S
O957        H989   0.990       .  S
O958        H975   0.990       .  S
O959        H979   0.990       .  S
O959        H988   0.990       .  S
O960        C961   1.274       .  A
C961       C2716   1.488       .  S
O962        H981   0.990       .  S
O962        H985   0.990       .  S
O963        H977   0.990       .  S
O963        H984   0.990       .  S
O964        C968   1.288       .  A
O965        C968   1.284       .  A
O966        H976   0.990       .  S
O967        H980   0.990       .  S
C968       C2688   1.492       .  S
Zr991       O992   2.437       .  S
Zr991       O993   2.462   1_565  S
Zr991       O994   2.470       .  S
Zr991       O997   2.452       .  S
Zr991       O999   2.375       .  S
Zr991      O1000   2.393       .  S
Zr991      O1001   2.410       .  S
Zr991      O1002   2.408       .  S
O992       H1048   0.990   1_565  S
O992       H1056   0.991       .  S
O993       C1013   1.289       .  A
O994       C1015   1.290       .  A
O995      Zr1005   2.418       .  S
O995       C1014   1.284       .  A
O996      Zr1004   2.408       .  S
O996       C1015   1.279       .  A
O997       C1014   1.288       .  A
O998      Zr1006   2.394   1_545  S
O998       C1013   1.275       .  A
O999      Zr1004   2.393       .  S
O999      Zr1006   2.387       .  S
O1000     Zr1005   2.396       .  S
O1000     Zr1006   2.377       .  S
O1000      H1035   0.960       .  S
O1001     Zr1004   2.391       .  S
O1001     Zr1021   2.386       .  S
O1001      H1038   0.967       .  S
O1002     Zr1005   2.386       .  S
O1002     Zr1021   2.384       .  S
Zr1003     O1028   2.441       .  S
Zr1003     O1022   2.449       .  S
Zr1003     O1030   2.459       .  S
Zr1003     O1018   2.483       .  S
Zr1003     O1009   2.408       .  S
Zr1003     O1010   2.410       .  S
Zr1003     O1011   2.385       .  S
Zr1003     O1012   2.390       .  S
Zr1004     O1023   2.435       .  S
Zr1004     O1016   2.435       .  S
Zr1004     O1017   2.391       .  S
Zr1004     O1010   2.403       .  S
Zr1004     O1011   2.392       .  S
Zr1005     O1007   2.436       .  S
Zr1005     O1029   2.436       .  S
Zr1005     O1031   2.419       .  S
Zr1005     O1009   2.393       .  S
Zr1005     O1012   2.389       .  S
Zr1006     O1032   2.435       .  S
Zr1006     O1033   2.435       .  S
Zr1006     O1008   2.440       .  S
Zr1006     O1009   2.389       .  S
Zr1006     O1010   2.377       .  S
O1007      H1044   0.990       .  S
O1008      H1039   0.990       .  S
O1008      H1053   0.990   1_565  S
O1010      H1036   0.971       .  S
O1011     Zr1021   2.384       .  S
O1012     Zr1021   2.373       .  S
O1012      H1037   0.969       .  S
C1013      C2719   1.487       .  S
C1014      C2985   1.489       .  S
C1015      C2803   1.486       .  S
O1016      H1052   0.990       .  S
O1017      C1019   1.276       .  A
O1018      C1019   1.294       .  A
C1019      C3027   1.486       .  S
O1020     Zr1021   2.439       .  S
O1020      H1049   0.990       .  S
Zr1021     O1024   2.437       .  S
Zr1021     O1025   2.440       .  S
Zr1021     O1026   2.400       .  S
O1022      C1027   1.285       .  A
O1023      H1040   0.990       .  S
O1023      H1055   0.990       .  S
O1024      H1041   0.990       .  S
O1025      H1045   0.990       .  S
O1025      H1054   0.990       .  S
O1026      C1027   1.279       .  A
C1027      C2705   1.490       .  S
O1028      H1047   0.991       .  S
O1028      H1051   0.990       .  S
O1029      H1043   0.990       .  S
O1029      H1050   0.990       .  S
O1030      C1034   1.290       .  A
O1031      C1034   1.282       .  A
O1032      H1042   0.990   1_565  S
O1033      H1046   0.990       .  S
C1034      C2674   1.488       .  S
Zr1057     O1058   2.441       .  S
Zr1057     O1059   2.452       .  S
Zr1057     O1060   2.452       .  S
Zr1057     O1063   2.463       .  S
Zr1057     O1065   2.388       .  S
Zr1057     O1066   2.391       .  S
Zr1057     O1067   2.420       .  S
Zr1057     O1068   2.387       .  S
O1058      H1114   0.990       .  S
O1058      H1122   0.990       .  S
O1059      C1079   1.286   1_545  A
O1060      C1081   1.285       .  A
O1061     Zr1071   2.418       .  S
O1061      C1080   1.281       .  A
O1062     Zr1070   2.427       .  S
O1062      C1081   1.285       .  A
O1063      C1080   1.290       .  A
O1064     Zr1072   2.408       .  S
O1064      C1079   1.280   1_545  A
O1065     Zr1070   2.395       .  S
O1065     Zr1072   2.381       .  S
O1066     Zr1071   2.395       .  S
O1066     Zr1072   2.384       .  S
O1066      H1101   0.969       .  S
O1067     Zr1070   2.399       .  S
O1067     Zr1087   2.391       .  S
O1067      H1104   0.955       .  S
O1068     Zr1071   2.376       .  S
O1068     Zr1087   2.366       .  S
Zr1069     O1094   2.441       .  S
Zr1069     O1088   2.456       .  S
Zr1069     O1096   2.459       .  S
Zr1069     O1084   2.463       .  S
Zr1069     O1075   2.404       .  S
Zr1069     O1076   2.414       .  S
Zr1069     O1077   2.382       .  S
Zr1069     O1078   2.380       .  S
Zr1070     O1089   2.435       .  S
Zr1070     O1082   2.435       .  S
Zr1070     O1083   2.432       .  S
Zr1070     O1076   2.401       .  S
Zr1070     O1077   2.394       .  S
Zr1071     O1073   2.432       .  S
Zr1071     O1095   2.439       .  S
Zr1071     O1097   2.406       .  S
Zr1071     O1075   2.386       .  S
Zr1071     O1078   2.398       .  S
Zr1072     O1098   2.437       .  S
Zr1072     O1099   2.436       .  S
Zr1072     O1074   2.438       .  S
Zr1072     O1075   2.389       .  S
Zr1072     O1076   2.393       .  S
O1073      H1110   0.990       .  S
O1074      H1105   0.990       .  S
O1074      H1119   0.990       .  S
O1076      H1102   0.964       .  S
O1077     Zr1087   2.380       .  S
O1078     Zr1087   2.382       .  S
O1078      H1103   0.966       .  S
C1079      C2604   1.492       .  S
C1080      C2632   1.475       .  S
C1081      C3136   1.486       .  S
O1082      H1118   0.990       .  S
O1083      C1085   1.285       .  A
O1084      C1085   1.288       .  A
C1085      C2646   1.487       .  S
O1086     Zr1087   2.437       .  S
O1086      H1115   0.990       .  S
Zr1087     O1090   2.435       .  S
Zr1087     O1091   2.436       .  S
Zr1087     O1092   2.392       .  S
O1088      C1093   1.289       .  A
O1089      H1106   0.990       .  S
O1089      H1121   0.990       .  S
O1090      H1107   0.990       .  S
O1091      H1111   0.989       .  S
O1091      H1120   0.990       .  S
O1092      C1093   1.275       .  A
C1093      C2621   1.485       .  S
O1094      H1113   0.990       .  S
O1094      H1117   0.990       .  S
O1095      H1109   0.990       .  S
O1095      H1116   0.990       .  S
O1096      C1100   1.290       .  A
O1097      C1100   1.279       .  A
O1098      H1108   0.990       .  S
O1099      H1112   0.990       .  S
C1100      C2663   1.491       .  S
Zr1123     O1124   2.440       .  S
Zr1123     O1125   2.458       .  S
Zr1123     O1126   2.457       .  S
Zr1123     O1129   2.466       .  S
Zr1123     O1131   2.382       .  S
Zr1123     O1132   2.391       .  S
Zr1123     O1133   2.420       .  S
Zr1123     O1134   2.399       .  S
O1124      H1180   0.990       .  S
O1124      H1188   0.991       .  S
O1125      C1145   1.289       .  A
O1126      C1147   1.288       .  A
O1127     Zr1137   2.422       .  S
O1127      C1146   1.284       .  A
O1128     Zr1136   2.426       .  S
O1128      C1147   1.283       .  A
O1129      C1146   1.289       .  A
O1130     Zr1138   2.391       .  S
O1130      C1145   1.275       .  A
O1131     Zr1136   2.397       .  S
O1131     Zr1138   2.385       .  S
O1132     Zr1137   2.394       .  S
O1132     Zr1138   2.385       .  S
O1132      H1167   0.970       .  S
O1133     Zr1136   2.400       .  S
O1133     Zr1153   2.395       .  S
O1133      H1170   0.956       .  S
O1134     Zr1137   2.382       .  S
O1134     Zr1153   2.381       .  S
Zr1135     O1160   2.441       .  S
Zr1135     O1154   2.451       .  S
Zr1135     O1162   2.449       .  S
Zr1135     O1150   2.456       .  S
Zr1135     O1141   2.405       .  S
Zr1135     O1142   2.413       .  S
Zr1135     O1143   2.386       .  S
Zr1135     O1144   2.385       .  S
Zr1136     O1155   2.436       .  S
Zr1136     O1148   2.433       .  S
Zr1136     O1149   2.422       .  S
Zr1136     O1142   2.402       .  S
Zr1136     O1143   2.397       .  S
Zr1137     O1139   2.435       .  S
Zr1137     O1161   2.438       .  S
Zr1137     O1163   2.421       .  S
Zr1137     O1141   2.389       .  S
Zr1137     O1144   2.395       .  S
Zr1138     O1164   2.434       .  S
Zr1138     O1165   2.436       .  S
Zr1138     O1140   2.438       .  S
Zr1138     O1141   2.390       .  S
Zr1138     O1142   2.375       .  S
O1139      H1176   0.990       .  S
O1140      H1171   0.990       .  S
O1140      H1185   0.990       .  S
O1142      H1168   0.966       .  S
O1143     Zr1153   2.380       .  S
O1144     Zr1153   2.377       .  S
O1144      H1169   0.966       .  S
C1145      C2618   1.486       .  S
C1146      C2562   1.487       .  S
C1147      C3097   1.487       .  S
O1148      H1184   0.989       .  S
O1149      C1151   1.282       .  A
O1150      C1151   1.287       .  A
C1151      C2579   1.472       .  S
O1152     Zr1153   2.439       .  S
O1152      H1181   0.991       .  S
Zr1153     O1156   2.437       .  S
Zr1153     O1157   2.441       .  S
Zr1153     O1158   2.407       .  S
O1154      C1159   1.286       .  A
O1155      H1172   0.990       .  S
O1155      H1187   0.990       .  S
O1156      H1173   0.990       .  S
O1157      H1177   0.990       .  S
O1157      H1186   0.990       .  S
O1158      C1159   1.280       .  A
C1159      C2607   1.490       .  S
O1160      H1179   0.990       .  S
O1160      H1183   0.990       .  S
O1161      H1175   0.990       .  S
O1161      H1182   0.990       .  S
O1162      C1166   1.288       .  A
O1163      C1166   1.282       .  A
O1164      H1174   0.990       .  S
O1165      H1178   0.990       .  S
C1166      C2590   1.485       .  S
Zr1189     O1190   2.441       .  S
Zr1189     O1191   2.459       .  S
Zr1189     O1192   2.466       .  S
Zr1189     O1195   2.469       .  S
Zr1189     O1197   2.386       .  S
Zr1189     O1198   2.391       .  S
Zr1189     O1199   2.420       .  S
Zr1189     O1200   2.395       .  S
O1190      H1246   0.990       .  S
O1190      H1254   0.991       .  S
O1191      C1211   1.287       .  A
O1192      C1213   1.290       .  A
O1193     Zr1203   2.409       .  S
O1193      C1212   1.280       .  A
O1194     Zr1202   2.421       .  S
O1194      C1213   1.282       .  A
O1195      C1212   1.292       .  A
O1196     Zr1204   2.401       .  S
O1196      C1211   1.279       .  A
O1197     Zr1202   2.393       .  S
O1197     Zr1204   2.380       .  S
O1198     Zr1203   2.393       .  S
O1198     Zr1204   2.383       .  S
O1198      H1233   0.967       .  S
O1199     Zr1202   2.402       .  S
O1199     Zr1219   2.390       .  S
O1199      H1236   0.970       .  S
O1200     Zr1203   2.381       .  S
O1200     Zr1219   2.377       .  S
Zr1201     O1226   2.441       .  S
Zr1201     O1220   2.466       .  S
Zr1201     O1228   2.465       .  S
Zr1201     O1216   2.445       .  S
Zr1201     O1207   2.400       .  S
Zr1201     O1208   2.417       .  S
Zr1201     O1209   2.384       .  S
Zr1201     O1210   2.381       .  S
Zr1202     O1221   2.437       .  S
Zr1202     O1214   2.435       .  S
Zr1202     O1215   2.418       .  S
Zr1202     O1208   2.398       .  S
Zr1202     O1209   2.402       .  S
Zr1203     O1205   2.434       .  S
Zr1203     O1227   2.438       .  S
Zr1203     O1229   2.410       .  S
Zr1203     O1207   2.377       .  S
Zr1203     O1210   2.393       .  S
Zr1204     O1230   2.435       .  S
Zr1204     O1231   2.436       .  S
Zr1204     O1206   2.437       .  S
Zr1204     O1207   2.384       .  S
Zr1204     O1208   2.385       .  S
O1205      H1242   0.990       .  S
O1206      H1237   0.990       .  S
O1206      H1251   0.990       .  S
O1208      H1234   0.961       .  S
O1209     Zr1219   2.382       .  S
O1210     Zr1219   2.385       .  S
O1210      H1235   0.965       .  S
C1211      C2506   1.488       .  S
C1212      C2534   1.478       .  S
C1213      C3041   1.487       .  S
O1214      H1250   0.990       .  S
O1215      C1217   1.282       .  A
O1216      C1217   1.286       .  A
C1217      C2548   1.474       .  S
O1218     Zr1219   2.438       .  S
O1218      H1247   0.990       .  S
Zr1219     O1222   2.436       .  S
Zr1219     O1223   2.440       .  S
Zr1219     O1224   2.400       .  S
O1220      C1225   1.291       .  A
O1221      H1238   0.990       .  S
O1221      H1253   0.990       .  S
O1222      H1239   0.990       .  S
O1223      H1243   0.990       .  S
O1223      H1252   0.990       .  S
O1224      C1225   1.276       .  A
C1225      C2520   1.494       .  S
O1226      H1245   0.991       .  S
O1226      H1249   0.990       .  S
O1227      H1241   0.990       .  S
O1227      H1248   0.990       .  S
O1228      C1232   1.289       .  A
O1229      C1232   1.282       .  A
O1230      H1240   0.990       .  S
O1231      H1244   0.990       .  S
C1232      C2660   1.485       .  S
Zr1255     O1256   2.441       .  S
Zr1255     O1257   2.468       .  S
Zr1255     O1258   2.468       .  S
Zr1255     O1261   2.466       .  S
Zr1255     O1263   2.382       .  S
Zr1255     O1264   2.390       .  S
Zr1255     O1265   2.418       .  S
Zr1255     O1266   2.401       .  S
O1256      H1312   0.990       .  S
O1256      H1320   0.991       .  S
O1257      C1277   1.291       .  A
O1258      C1279   1.290       .  A
O1259     Zr1269   2.417       .  S
O1259      C1278   1.282       .  A
O1260     Zr1268   2.422       .  S
O1260      C1279   1.282       .  A
O1261      C1278   1.290       .  A
O1262     Zr1270   2.392       .  S
O1262      C1277   1.275       .  A
O1263     Zr1268   2.395       .  S
O1263     Zr1270   2.387       .  S
O1264     Zr1269   2.392       .  S
O1264     Zr1270   2.379       .  S
O1264      H1299   0.968       .  S
O1265     Zr1268   2.395       .  S
O1265     Zr1285   2.399       .  S
O1265      H1302   0.956       .  S
O1266     Zr1269   2.384       .  S
O1266     Zr1285   2.383       .  S
Zr1267     O1292   2.438       .  S
Zr1267     O1286   2.450       .  S
Zr1267     O1294   2.455       .  S
Zr1267     O1282   2.446       .  S
Zr1267     O1273   2.402       .  S
Zr1267     O1274   2.413       .  S
Zr1267     O1275   2.386       .  S
Zr1267     O1276   2.385       .  S
Zr1268     O1287   2.436       .  S
Zr1268     O1280   2.434       .  S
Zr1268     O1281   2.409       .  S
Zr1268     O1274   2.403       .  S
Zr1268     O1275   2.398       .  S
Zr1269     O1271   2.435       .  S
Zr1269     O1293   2.438       .  S
Zr1269     O1295   2.423       .  S
Zr1269     O1273   2.381       .  S
Zr1269     O1276   2.395       .  S
Zr1270     O1296   2.434       .  S
Zr1270     O1297   2.435       .  S
Zr1270     O1272   2.437       .  S
Zr1270     O1273   2.384       .  S
Zr1270     O1274   2.373       .  S
O1271      H1308   0.990       .  S
O1272      H1303   0.990       .  S
O1272      H1317   0.990       .  S
O1274      H1300   0.959       .  S
O1275     Zr1285   2.382       .  S
O1276     Zr1285   2.383       .  S
O1276      H1301   0.967       .  S
C1277      C2523   1.489       .  S
C1278      C2478   1.478       .  S
C1279      C3013   1.493       .  S
O1280      H1316   0.990       .  S
O1281      C1283   1.280       .  A
O1282      C1283   1.285       .  A
C1283      C2495   1.459       .  S
O1284     Zr1285   2.439       .  S
O1284      H1313   0.990       .  S
Zr1285     O1288   2.437       .  S
Zr1285     O1289   2.440       .  S
Zr1285     O1290   2.411       .  S
O1286      C1291   1.286       .  A
O1287      H1304   0.990       .  S
O1287      H1319   0.990       .  S
O1288      H1305   0.990       .  S
O1289      H1309   0.990       .  S
O1289      H1318   0.990       .  S
O1290      C1291   1.280       .  A
C1291      C2509   1.488       .  S
O1292      H1311   0.991       .  S
O1292      H1315   0.990       .  S
O1293      H1307   0.990       .  S
O1293      H1314   0.990       .  S
O1294      C1298   1.287       .  A
O1295      C1298   1.285       .  A
O1296      H1306   0.990       .  S
O1297      H1310   0.990       .  S
C1298      C2593   1.494       .  S
Zr1321     O1322   2.441       .  S
Zr1321     O1323   2.462       .  S
Zr1321     O1324   2.466       .  S
Zr1321     O1327   2.475       .  S
Zr1321     O1329   2.384       .  S
Zr1321     O1330   2.395       .  S
Zr1321     O1331   2.418       .  S
Zr1321     O1332   2.399       .  S
O1322      H1378   0.990       .  S
O1322      H1386   0.991       .  S
O1323      C1343   1.287       .  A
O1324      C1345   1.291       .  A
O1325     Zr1335   2.424       .  S
O1325      C1344   1.283       .  A
O1326     Zr1334   2.428       .  S
O1326      C1345   1.283       .  A
O1327      C1344   1.293       .  A
O1328     Zr1336   2.407       .  S
O1328      C1343   1.279       .  A
O1329     Zr1334   2.394       .  S
O1329     Zr1336   2.379       .  S
O1330     Zr1335   2.405       .  S
O1330     Zr1336   2.381       .  S
O1330      H1365   0.971       .  S
O1331     Zr1334   2.402       .  S
O1331     Zr1351   2.385       .  S
O1331      H1368   0.959       .  S
O1332     Zr1335   2.386       .  S
O1332     Zr1351   2.377       .  S
Zr1333     O1358   2.438       .  S
Zr1333     O1352   2.459       .  S
Zr1333     O1360   2.459       .  S
Zr1333     O1348   2.462       .  S
Zr1333     O1339   2.401       .  S
Zr1333     O1340   2.416       .  S
Zr1333     O1341   2.382       .  S
Zr1333     O1342   2.390       .  S
Zr1334     O1353   2.435       .  S
Zr1334     O1346   2.436       .  S
Zr1334     O1347   2.422       .  S
Zr1334     O1340   2.404       .  S
Zr1334     O1341   2.397       .  S
Zr1335     O1337   2.436       .  S
Zr1335     O1359   2.437       .  S
Zr1335     O1361   2.435       .  S
Zr1335     O1339   2.381       .  S
Zr1335     O1342   2.392       .  S
Zr1336     O1362   2.438       .  S
Zr1336     O1363   2.434       .  S
Zr1336     O1338   2.436       .  S
Zr1336     O1339   2.380       .  S
Zr1336     O1340   2.399       .  S
O1337      H1374   0.990       .  S
O1338      H1369   0.990       .  S
O1338      H1383   0.990       .  S
O1340      H1366   0.968       .  S
O1341     Zr1351   2.381       .  S
O1342     Zr1351   2.381       .  S
O1342      H1367   0.968       .  S
C1343      C2422   1.487       .  S
C1344      C2450   1.483       .  S
C1345      C3377   1.493       .  S
O1346      H1382   0.990       .  S
O1347      C1349   1.282       .  A
O1348      C1349   1.287       .  A
C1349      C2649   1.477       .  S
O1350     Zr1351   2.439       .  S
O1350      H1379   0.991       .  S
Zr1351     O1354   2.436       .  S
Zr1351     O1355   2.440       .  S
Zr1351     O1356   2.398       .  S
O1352      C1357   1.287       .  A
O1353      H1370   0.990       .  S
O1353      H1385   0.990       .  S
O1354      H1371   0.990       .  S
O1355      H1375   0.990       .  S
O1355      H1384   0.990       .  S
O1356      C1357   1.278       .  A
C1357      C2436   1.493       .  S
O1358      H1377   0.991       .  S
O1358      H1381   0.990       .  S
O1359      H1373   0.990       .  S
O1359      H1380   0.990       .  S
O1360      C1364   1.288       .  A
O1361      C1364   1.288       .  A
O1362      H1372   0.990       .  S
O1363      H1376   0.990       .  S
C1364      C2464   1.498       .  S
Zr1387     O1388   2.440       .  S
Zr1387     O1389   2.458       .  S
Zr1387     O1390   2.449       .  S
Zr1387     O1393   2.462       .  S
Zr1387     O1395   2.385       .  S
Zr1387     O1396   2.392       .  S
Zr1387     O1397   2.422       .  S
Zr1387     O1398   2.399       .  S
O1388      H1444   0.990       .  S
O1388      H1452   0.991       .  S
O1389      C1409   1.287       .  A
O1390      C1411   1.285       .  A
O1391     Zr1401   2.412       .  S
O1391      C1410   1.281       .  A
O1392     Zr1400   2.430       .  S
O1392      C1411   1.285       .  A
O1393      C1410   1.288       .  A
O1394     Zr1402   2.400       .  S
O1394      C1409   1.278       .  A
O1395     Zr1400   2.393       .  S
O1395     Zr1402   2.382       .  S
O1396     Zr1401   2.396       .  S
O1396     Zr1402   2.382       .  S
O1396      H1431   0.968       .  S
O1397     Zr1400   2.397       .  S
O1397     Zr1417   2.387       .  S
O1397      H1434   0.964       .  S
O1398     Zr1401   2.381       .  S
O1398     Zr1417   2.381       .  S
Zr1399     O1424   2.442       .  S
Zr1399     O1418   2.463       .  S
Zr1399     O1426   2.458       .  S
Zr1399     O1414   2.463       .  S
Zr1399     O1405   2.403       .  S
Zr1399     O1406   2.416       .  S
Zr1399     O1407   2.384       .  S
Zr1399     O1408   2.383       .  S
Zr1400     O1419   2.435       .  S
Zr1400     O1412   2.436       .  S
Zr1400     O1413   2.421       .  S
Zr1400     O1406   2.404       .  S
Zr1400     O1407   2.402       .  S
Zr1401     O1403   2.435       .  S
Zr1401     O1425   2.438       .  S
Zr1401     O1427   2.415       .  S
Zr1401     O1405   2.383       .  S
Zr1401     O1408   2.395       .  S
Zr1402     O1428   2.435       .  S
Zr1402     O1429   2.435       .  S
Zr1402     O1404   2.437       .  S
Zr1402     O1405   2.387       .  S
Zr1402     O1406   2.383       .  S
O1403      H1440   0.990       .  S
O1404      H1435   0.990       .  S
O1404      H1449   0.990       .  S
O1406      H1432   0.968       .  S
O1407     Zr1417   2.380       .  S
O1408     Zr1417   2.380       .  S
O1408      H1433   0.962       .  S
C1409      C2439   1.491   1_565  S
C1410      C2394   1.476       .  S
C1411      C3321   1.485       .  S
O1412      H1448   0.990       .  S
O1413      C1415   1.282       .  A
O1414      C1415   1.291       .  A
C1415      C2576   1.495       .  S
O1416     Zr1417   2.438       .  S
O1416      H1445   0.990       .  S
Zr1417     O1420   2.437       .  S
Zr1417     O1421   2.439       .  S
Zr1417     O1422   2.405       .  S
O1418      C1423   1.288       .  A
O1419      H1436   0.990       .  S
O1419      H1451   0.990       .  S
O1420      H1437   0.990       .  S
O1421      H1441   0.990       .  S
O1421      H1450   0.990       .  S
O1422      C1423   1.279       .  A
C1423      C2425   1.486       .  S
O1424      H1443   0.990       .  S
O1424      H1447   0.990       .  S
O1425      H1439   0.989       .  S
O1425      H1446   0.990       .  S
O1426      C1430   1.290       .  A
O1427      C1430   1.281       .  A
O1428      H1438   0.990       .  S
O1429      H1442   0.990       .  S
C1430      C2411   1.493       .  S
Zr1453     O1454   2.440       .  S
Zr1453     O1455   2.469       .  S
Zr1453     O1456   2.470       .  S
Zr1453     O1459   2.472       .  S
Zr1453     O1461   2.387       .  S
Zr1453     O1462   2.396       .  S
Zr1453     O1463   2.422       .  S
Zr1453     O1464   2.400       .  S
O1454      H1510   0.990       .  S
O1454      H1518   0.990       .  S
O1455      C1475   1.291   1_545  A
O1456      C1477   1.288       .  A
O1457     Zr1467   2.404       .  S
O1457      C1476   1.282       .  A
O1458     Zr1466   2.422       .  S
O1458      C1477   1.284       .  A
O1459      C1476   1.291       .  A
O1460     Zr1468   2.388       .  S
O1460      C1475   1.274   1_545  A
O1461     Zr1466   2.386       .  S
O1461     Zr1468   2.389       .  S
O1462     Zr1467   2.391       .  S
O1462     Zr1468   2.384       .  S
O1462      H1497   0.968       .  S
O1463     Zr1466   2.395       .  S
O1463     Zr1483   2.387       .  S
O1463      H1500   0.966       .  S
O1464     Zr1467   2.381       .  S
O1464     Zr1483   2.381       .  S
Zr1465     O1490   2.442       .  S
Zr1465     O1484   2.459       .  S
Zr1465     O1492   2.469       .  S
Zr1465     O1480   2.464       .  S
Zr1465     O1471   2.400       .  S
Zr1465     O1472   2.413       .  S
Zr1465     O1473   2.386       .  S
Zr1465     O1474   2.381       .  S
Zr1466     O1485   2.437       .  S
Zr1466     O1478   2.433       .  S
Zr1466     O1479   2.410       .  S
Zr1466     O1472   2.402       .  S
Zr1466     O1473   2.400       .  S
Zr1467     O1469   2.435       .  S
Zr1467     O1491   2.437       .  S
Zr1467     O1493   2.411       .  S
Zr1467     O1471   2.381       .  S
Zr1467     O1474   2.392       .  S
Zr1468     O1494   2.435       .  S
Zr1468     O1495   2.436       .  S
Zr1468     O1470   2.438       .  S
Zr1468     O1471   2.381       .  S
Zr1468     O1472   2.381       .  S
O1469      H1506   0.990       .  S
O1470      H1501   0.990       .  S
O1470      H1515   0.990       .  S
O1472      H1498   0.956       .  S
O1473     Zr1483   2.381       .  S
O1474     Zr1483   2.379       .  S
O1474      H1499   0.962       .  S
C1475      C2355   1.490       .  S
C1476      C2383   1.494       .  S
C1477      C3251   1.493       .  S
O1478      H1514   0.989       .  S
O1479      C1481   1.279       .  A
O1480      C1481   1.289       .  A
C1481      C2551   1.467       .  S
O1482     Zr1483   2.438       .  S
O1482      H1511   0.990       .  S
Zr1483     O1486   2.437       .  S
Zr1483     O1487   2.440       .  S
Zr1483     O1488   2.399       .  S
O1484      C1489   1.290       .  A
O1485      H1502   0.990       .  S
O1485      H1517   0.990       .  S
O1486      H1503   0.990       .  S
O1487      H1507   0.990       .  S
O1487      H1516   0.990       .  S
O1488      C1489   1.277       .  A
C1489      C2366   1.490       .  S
O1490      H1509   0.990       .  S
O1490      H1513   0.990       .  S
O1491      H1505   0.990       .  S
O1491      H1512   0.990       .  S
O1492      C1496   1.292       .  A
O1493      C1496   1.281       .  A
O1494      H1504   0.990       .  S
O1495      H1508   0.990       .  S
C1496      C2467   1.492       .  S
Zr1519     O1520   2.440       .  S
Zr1519     O1521   2.465       .  S
Zr1519     O1522   2.476       .  S
Zr1519     O1525   2.463       .  S
Zr1519     O1527   2.385       .  S
Zr1519     O1528   2.396       .  S
Zr1519     O1529   2.419       .  S
Zr1519     O1530   2.404       .  S
O1520      H1576   0.990       .  S
O1520      H1584   0.990       .  S
O1521      C1541   1.290       .  A
O1522      C1543   1.289       .  A
O1523     Zr1533   2.405       .  S
O1523      C1542   1.282       .  A
O1524     Zr1532   2.433       .  S
O1524      C1543   1.286       .  A
O1525      C1542   1.288       .  A
O1526     Zr1534   2.385       .  S
O1526      C1541   1.274       .  A
O1527     Zr1532   2.390       .  S
O1527     Zr1534   2.391       .  S
O1528     Zr1533   2.390       .  S
O1528     Zr1534   2.381       .  S
O1528      H1563   0.971       .  S
O1529     Zr1532   2.397       .  S
O1529     Zr1549   2.386       .  S
O1529      H1566   0.951       .  S
O1530     Zr1533   2.383       .  S
O1530     Zr1549   2.383       .  S
Zr1531     O1556   2.442       .  S
Zr1531     O1550   2.467       .  S
Zr1531     O1558   2.462       .  S
Zr1531     O1546   2.449       .  S
Zr1531     O1537   2.400       .  S
Zr1531     O1538   2.415       .  S
Zr1531     O1539   2.387       .  S
Zr1531     O1540   2.382       .  S
Zr1532     O1551   2.436       .  S
Zr1532     O1544   2.435       .  S
Zr1532     O1545   2.414       .  S
Zr1532     O1538   2.404       .  S
Zr1532     O1539   2.404       .  S
Zr1533     O1535   2.436       .  S
Zr1533     O1557   2.439       .  S
Zr1533     O1559   2.418       .  S
Zr1533     O1537   2.376       .  S
Zr1533     O1540   2.389       .  S
Zr1534     O1560   2.435       .  S
Zr1534     O1561   2.437       .  S
Zr1534     O1536   2.437       .  S
Zr1534     O1537   2.380       .  S
Zr1534     O1538   2.374       .  S
O1535      H1572   0.990       .  S
O1536      H1567   0.990       .  S
O1536      H1581   0.990       .  S
O1538      H1564   0.960       .  S
O1539     Zr1549   2.385       .  S
O1540     Zr1549   2.381       .  S
O1540      H1565   0.966       .  S
C1541      C2369   1.488       .  S
C1542      C2338   1.487       .  S
C1543      C3209   1.500       .  S
O1544      H1580   0.990       .  S
O1545      C1547   1.281       .  A
O1546      C1547   1.286       .  A
C1547      C2492   1.464       .  S
O1548     Zr1549   2.438       .  S
O1548      H1577   0.990       .  S
Zr1549     O1552   2.437       .  S
Zr1549     O1553   2.440       .  S
Zr1549     O1554   2.396       .  S
O1550      C1555   1.291       .  A
O1551      H1568   0.990       .  S
O1551      H1583   0.990       .  S
O1552      H1569   0.990       .  S
O1553      H1573   0.990       .  S
O1553      H1582   0.990       .  S
O1554      C1555   1.275       .  A
C1555      C2352   1.493       .  S
O1556      H1575   0.991       .  S
O1556      H1579   0.990       .  S
O1557      H1571   0.990       .  S
O1557      H1578   0.990       .  S
O1558      C1562   1.288       .  A
O1559      C1562   1.284       .  A
O1560      H1570   0.990       .  S
O1561      H1574   0.990       .  S
C1562      C2408   1.487       .  S
Zr1585     O1586   2.441       .  S
Zr1585     O1587   2.454       .  S
Zr1585     O1588   2.459       .  S
Zr1585     O1591   2.449       .  S
Zr1585     O1593   2.386       .  S
Zr1585     O1594   2.391       .  S
Zr1585     O1595   2.418       .  S
Zr1585     O1596   2.399       .  S
O1586      H1642   0.990       .  S
O1586      H1650   0.990       .  S
O1587      C1607   1.286       .  A
O1588      C1609   1.287       .  A
O1589     Zr1599   2.421       .  S
O1589      C1608   1.282       .  A
O1590     Zr1598   2.430       .  S
O1590      C1609   1.286       .  A
O1591      C1608   1.287       .  A
O1592     Zr1600   2.399       .  S
O1592      C1607   1.278       .  A
O1593     Zr1598   2.396       .  S
O1593     Zr1600   2.386       .  S
O1594     Zr1599   2.393       .  S
O1594     Zr1600   2.380       .  S
O1594      H1629   0.966       .  S
O1595     Zr1598   2.396       .  S
O1595     Zr1615   2.385   1_545  S
O1595      H1632   0.960       .  S
O1596     Zr1599   2.386       .  S
O1596     Zr1615   2.383   1_545  S
Zr1597     O1622   2.441       .  S
Zr1597     O1616   2.451       .  S
Zr1597     O1624   2.453       .  S
Zr1597     O1612   2.460       .  S
Zr1597     O1603   2.405   1_565  S
Zr1597     O1604   2.412   1_565  S
Zr1597     O1605   2.382       .  S
Zr1597     O1606   2.385       .  S
Zr1598     O1617   2.436       .  S
Zr1598     O1610   2.435       .  S
Zr1598     O1611   2.425       .  S
Zr1598     O1604   2.403       .  S
Zr1598     O1605   2.399   1_545  S
Zr1599     O1601   2.435       .  S
Zr1599     O1623   2.438       .  S
Zr1599     O1625   2.421       .  S
Zr1599     O1603   2.390       .  S
Zr1599     O1606   2.393   1_545  S
Zr1600     O1626   2.435       .  S
Zr1600     O1627   2.437       .  S
Zr1600     O1602   2.437       .  S
Zr1600     O1603   2.387       .  S
Zr1600     O1604   2.385       .  S
O1601      H1638   0.990       .  S
O1602      H1633   0.990       .  S
O1602      H1647   0.990       .  S
O1604      H1630   0.970       .  S
O1605     Zr1615   2.381       .  S
O1606     Zr1615   2.378       .  S
O1606      H1631   0.967       .  S
C1607      C2299   1.491       .  S
C1608      C2380   1.469       .  S
C1609      C2940   1.489       .  S
O1610      H1646   0.990       .  S
O1611      C1613   1.282   1_545  A
O1612      C1613   1.290       .  A
C1613      C2310   1.489       .  S
O1614     Zr1615   2.439       .  S
O1614      H1643   0.990       .  S
Zr1615     O1618   2.437       .  S
Zr1615     O1619   2.439       .  S
Zr1615     O1620   2.404       .  S
O1616      C1621   1.286       .  A
O1617      H1634   0.990       .  S
O1617      H1649   0.990       .  S
O1618      H1635   0.990       .  S
O1619      H1639   0.990       .  S
O1619      H1648   0.990       .  S
O1620      C1621   1.279       .  A
C1621      C2282   1.493       .  S
O1622      H1641   0.991       .  S
O1622      H1645   0.990       .  S
O1623      H1637   0.990       .  S
O1623      H1644   0.990       .  S
O1624      C1628   1.288       .  A
O1625      C1628   1.282   1_545  A
O1626      H1636   0.990       .  S
O1627      H1640   0.990       .  S
C1628      C2324   1.483       .  S
Zr1651     O1652   2.442       .  S
Zr1651     O1653   2.457       .  S
Zr1651     O1654   2.468       .  S
Zr1651     O1657   2.454       .  S
Zr1651     O1659   2.388       .  S
Zr1651     O1660   2.395       .  S
Zr1651     O1661   2.417       .  S
Zr1651     O1662   2.400       .  S
O1652      H1708   0.990       .  S
O1652      H1716   0.990       .  S
O1653      C1673   1.286       .  A
O1654      C1675   1.288       .  A
O1655     Zr1665   2.416       .  S
O1655      C1674   1.282       .  A
O1656     Zr1664   2.428       .  S
O1656      C1675   1.286       .  A
O1657      C1674   1.289       .  A
O1658     Zr1666   2.401       .  S
O1658      C1673   1.279       .  A
O1659     Zr1664   2.396       .  S
O1659     Zr1666   2.384       .  S
O1660     Zr1665   2.396       .  S
O1660     Zr1666   2.377       .  S
O1660      H1695   0.962       .  S
O1661     Zr1664   2.400       .  S
O1661     Zr1681   2.382       .  S
O1661      H1698   0.956       .  S
O1662     Zr1665   2.387       .  S
O1662     Zr1681   2.378       .  S
Zr1663     O1688   2.438       .  S
Zr1663     O1682   2.461       .  S
Zr1663     O1690   2.455       .  S
Zr1663     O1678   2.445       .  S
Zr1663     O1669   2.404       .  S
Zr1663     O1670   2.414       .  S
Zr1663     O1671   2.383       .  S
Zr1663     O1672   2.385       .  S
Zr1664     O1683   2.437       .  S
Zr1664     O1676   2.434       .  S
Zr1664     O1677   2.432       .  S
Zr1664     O1670   2.401       .  S
Zr1664     O1671   2.398       .  S
Zr1665     O1667   2.436       .  S
Zr1665     O1689   2.437       .  S
Zr1665     O1691   2.424       .  S
Zr1665     O1669   2.384       .  S
Zr1665     O1672   2.394       .  S
Zr1666     O1692   2.437       .  S
Zr1666     O1693   2.435       .  S
Zr1666     O1668   2.437       .  S
Zr1666     O1669   2.386       .  S
Zr1666     O1670   2.389       .  S
O1667      H1704   0.990       .  S
O1668      H1699   0.990       .  S
O1668      H1713   0.990       .  S
O1670      H1696   0.972       .  S
O1671     Zr1681   2.380       .  S
O1672     Zr1681   2.380       .  S
O1672      H1697   0.959       .  S
C1673      C2285   1.495       .  S
C1674      C2341   1.481       .  S
C1675      C2901   1.490       .  S
O1676      H1712   0.990       .  S
O1677      C1679   1.283       .  A
O1678      C1679   1.286       .  A
C1679      C2254   1.486       .  S
O1680     Zr1681   2.438       .  S
O1680      H1709   0.990       .  S
Zr1681     O1684   2.436       .  S
Zr1681     O1685   2.439       .  S
Zr1681     O1686   2.392       .  S
O1682      C1687   1.287       .  A
O1683      H1700   0.990       .  S
O1683      H1715   0.990       .  S
O1684      H1701   0.990       .  S
O1685      H1705   0.990       .  S
O1685      H1714   0.990       .  S
O1686      C1687   1.278       .  A
C1687      C2296   1.491       .  S
O1688      H1707   0.990       .  S
O1688      H1711   0.990       .  S
O1689      H1703   0.990       .  S
O1689      H1710   0.990       .  S
O1690      C1694   1.287       .  A
O1691      C1694   1.285       .  A
O1692      H1702   0.990       .  S
O1693      H1706   0.990       .  S
C1694      C2271   1.495       .  S
Zr1717     O1718   2.440       .  S
Zr1717     O1719   2.456       .  S
Zr1717     O1720   2.467       .  S
Zr1717     O1723   2.462       .  S
Zr1717     O1725   2.380       .  S
Zr1717     O1726   2.395       .  S
Zr1717     O1727   2.418       .  S
Zr1717     O1728   2.404       .  S
O1718      H1774   0.989       .  S
O1718      H1782   0.991       .  S
O1719      C1739   1.287       .  A
O1720      C1741   1.290       .  A
O1721     Zr1731   2.422       .  S
O1721      C1740   1.282       .  A
O1722     Zr1730   2.432       .  S
O1722      C1741   1.283       .  A
O1723      C1740   1.289       .  A
O1724     Zr1732   2.396       .  S
O1724      C1739   1.277       .  A
O1725     Zr1730   2.396       .  S
O1725     Zr1732   2.384       .  S
O1726     Zr1731   2.399       .  S
O1726     Zr1732   2.383       .  S
O1726      H1761   0.970       .  S
O1727     Zr1730   2.397       .  S
O1727     Zr1747   2.390       .  S
O1727      H1764   0.953       .  S
O1728     Zr1731   2.386       .  S
O1728     Zr1747   2.382       .  S
Zr1729     O1754   2.442       .  S
Zr1729     O1748   2.453       .  S
Zr1729     O1756   2.443       .  S
Zr1729     O1744   2.445       .  S
Zr1729     O1735   2.403       .  S
Zr1729     O1736   2.415       .  S
Zr1729     O1737   2.384       .  S
Zr1729     O1738   2.382       .  S
Zr1730     O1749   2.437       .  S
Zr1730     O1742   2.435       .  S
Zr1730     O1743   2.415       .  S
Zr1730     O1736   2.404       .  S
Zr1730     O1737   2.400       .  S
Zr1731     O1733   2.434       .  S
Zr1731     O1755   2.438       .  S
Zr1731     O1757   2.429       .  S
Zr1731     O1735   2.388       .  S
Zr1731     O1738   2.391       .  S
Zr1732     O1758   2.434       .  S
Zr1732     O1759   2.437       .  S
Zr1732     O1734   2.438       .  S
Zr1732     O1735   2.392       .  S
Zr1732     O1736   2.378       .  S
O1733      H1770   0.990       .  S
O1734      H1765   0.990       .  S
O1734      H1779   0.990       .  S
O1736      H1762   0.967       .  S
O1737     Zr1747   2.379       .  S
O1738     Zr1747   2.379       .  S
O1738      H1763   0.967       .  S
C1739      C2229   1.485       .  S
C1740      C2453   1.477       .  S
C1741      C2845   1.493       .  S
O1742      H1778   0.990       .  S
O1743      C1745   1.282       .  A
O1744      C1745   1.285       .  A
C1745      C2240   1.464       .  S
O1746     Zr1747   2.439       .  S
O1746      H1775   0.990       .  S
Zr1747     O1750   2.437       .  S
Zr1747     O1751   2.440       .  S
Zr1747     O1752   2.406       .  S
O1748      C1753   1.285       .  A
O1749      H1766   0.990       .  S
O1749      H1781   0.990       .  S
O1750      H1767   0.990       .  S
O1751      H1771   0.990       .  S
O1751      H1780   0.990       .  S
O1752      C1753   1.280       .  A
C1753      C2212   1.493       .  S
O1754      H1773   0.990       .  S
O1754      H1777   0.990       .  S
O1755      H1769   0.990       .  S
O1755      H1776   0.990       .  S
O1756      C1760   1.286       .  A
O1757      C1760   1.283       .  A
O1758      H1768   0.990       .  S
O1759      H1772   0.990       .  S
C1760      C2268   1.488       .  S
Zr1783     O1784   2.442       .  S
Zr1783     O1785   2.452       .  S
Zr1783     O1786   2.462       .  S
Zr1783     O1789   2.449       .  S
Zr1783     O1791   2.385       .  S
Zr1783     O1792   2.395       .  S
Zr1783     O1793   2.417       .  S
Zr1783     O1794   2.402       .  S
O1784      H1840   0.989       .  S
O1784      H1848   0.991       .  S
O1785      C1805   1.285       .  A
O1786      C1807   1.287       .  A
O1787     Zr1797   2.419       .  S
O1787      C1806   1.282       .  A
O1788     Zr1796   2.419       .  S
O1788      C1807   1.284       .  A
O1789      C1806   1.286       .  A
O1790     Zr1798   2.403       .  S
O1790      C1805   1.279       .  A
O1791     Zr1796   2.390       .  S
O1791     Zr1798   2.385       .  S
O1792     Zr1797   2.394       .  S
O1792     Zr1798   2.379       .  S
O1792      H1827   0.969       .  S
O1793     Zr1796   2.398       .  S
O1793     Zr1813   2.382       .  S
O1793      H1830   0.955       .  S
O1794     Zr1797   2.386       .  S
O1794     Zr1813   2.383       .  S
Zr1795     O1820   2.441       .  S
Zr1795     O1814   2.457   1_565  S
Zr1795     O1822   2.453       .  S
Zr1795     O1810   2.463       .  S
Zr1795     O1801   2.407       .  S
Zr1795     O1802   2.413       .  S
Zr1795     O1803   2.384       .  S
Zr1795     O1804   2.385       .  S
Zr1796     O1815   2.436       .  S
Zr1796     O1808   2.434       .  S
Zr1796     O1809   2.413       .  S
Zr1796     O1802   2.401       .  S
Zr1796     O1803   2.403       .  S
Zr1797     O1799   2.436       .  S
Zr1797     O1821   2.436       .  S
Zr1797     O1823   2.422       .  S
Zr1797     O1801   2.385       .  S
Zr1797     O1804   2.389       .  S
Zr1798     O1824   2.435       .  S
Zr1798     O1825   2.436       .  S
Zr1798     O1800   2.437       .  S
Zr1798     O1801   2.387       .  S
Zr1798     O1802   2.384       .  S
O1799      H1836   0.990       .  S
O1800      H1831   0.990       .  S
O1800      H1845   0.990       .  S
O1802      H1828   0.963       .  S
O1803     Zr1813   2.383       .  S
O1804     Zr1813   2.375       .  S
O1804      H1829   0.968       .  S
C1805      C2215   1.493       .  S
C1806      C2397   1.468       .  S
C1807      C2817   1.486       .  S
O1808      H1844   0.990       .  S
O1809      C1811   1.280       .  A
O1810      C1811   1.289       .  A
C1811      C2198   1.478       .  S
O1812     Zr1813   2.439       .  S
O1812      H1841   0.991       .  S
Zr1813     O1816   2.438       .  S
Zr1813     O1817   2.439       .  S
Zr1813     O1818   2.400   1_565  S
O1814      C1819   1.287       .  A
O1815      H1832   0.990       .  S
O1815      H1847   0.990       .  S
O1816      H1833   0.990   1_565  S
O1817      H1837   0.990       .  S
O1817      H1846   0.990       .  S
O1818      C1819   1.279       .  A
C1819      C2226   1.483       .  S
O1820      H1839   0.990       .  S
O1820      H1843   0.990   1_565  S
O1821      H1835   0.990       .  S
O1821      H1842   0.990       .  S
O1822      C1826   1.287       .  A
O1823      C1826   1.285       .  A
O1824      H1834   0.990       .  S
O1825      H1838   0.990       .  S
C1826      C2327   1.497       .  S
Zr1849     O1850   2.442       .  S
Zr1849     O1851   2.458       .  S
Zr1849     O1852   2.460       .  S
Zr1849     O1855   2.456       .  S
Zr1849     O1857   2.381       .  S
Zr1849     O1858   2.395       .  S
Zr1849     O1859   2.414       .  S
Zr1849     O1860   2.393       .  S
O1850      H1906   0.990       .  S
O1850      H1914   0.991       .  S
O1851      C1871   1.288       .  A
O1852      C1873   1.287       .  A
O1853     Zr1863   2.422       .  S
O1853      C1872   1.282       .  A
O1854     Zr1862   2.428       .  S
O1854      C1873   1.284       .  A
O1855      C1872   1.288       .  A
O1856     Zr1864   2.401       .  S
O1856      C1871   1.277       .  A
O1857     Zr1862   2.391       .  S
O1857     Zr1864   2.386       .  S
O1858     Zr1863   2.398       .  S
O1858     Zr1864   2.385       .  S
O1858      H1893   0.967       .  S
O1859     Zr1862   2.391       .  S
O1859     Zr1879   2.382   1_545  S
O1859      H1896   1.005       .  S
O1860     Zr1863   2.378       .  S
O1860     Zr1879   2.371   1_545  S
Zr1861     O1886   2.439       .  S
Zr1861     O1880   2.464       .  S
Zr1861     O1888   2.451       .  S
Zr1861     O1876   2.457       .  S
Zr1861     O1867   2.404   1_565  S
Zr1861     O1868   2.413   1_565  S
Zr1861     O1869   2.382       .  S
Zr1861     O1870   2.383       .  S
Zr1862     O1881   2.435       .  S
Zr1862     O1874   2.433       .  S
Zr1862     O1875   2.416       .  S
Zr1862     O1868   2.403       .  S
Zr1862     O1869   2.400   1_545  S
Zr1863     O1865   2.435       .  S
Zr1863     O1887   2.439       .  S
Zr1863     O1889   2.423       .  S
Zr1863     O1867   2.382       .  S
Zr1863     O1870   2.393   1_545  S
Zr1864     O1890   2.435       .  S
Zr1864     O1891   2.436       .  S
Zr1864     O1866   2.437       .  S
Zr1864     O1867   2.387       .  S
Zr1864     O1868   2.384       .  S
O1865      H1902   0.990       .  S
O1866      H1897   0.990       .  S
O1866      H1911   0.990       .  S
O1868      H1894   0.957       .  S
O1869     Zr1879   2.384       .  S
O1870     Zr1879   2.382       .  S
O1870      H1895   0.959       .  S
C1871      C2173   1.485       .  S
C1872      C2635   1.464       .  S
C1873      C2758   1.482       .  S
O1874      H1910   0.989       .  S
O1875      C1877   1.280   1_545  A
O1876      C1877   1.287       .  A
C1877      C2201   1.467       .  S
O1878     Zr1879   2.438       .  S
O1878      H1907   0.990       .  S
Zr1879     O1882   2.436       .  S
Zr1879     O1883   2.438       .  S
Zr1879     O1884   2.391       .  S
O1880      C1885   1.291       .  A
O1881      H1898   0.990       .  S
O1881      H1913   0.990       .  S
O1882      H1899   0.990       .  S
O1883      H1903   0.989       .  S
O1883      H1912   0.989       .  S
O1884      C1885   1.274       .  A
C1885      C2156   1.491       .  S
O1886      H1905   0.990       .  S
O1886      H1909   0.991       .  S
O1887      H1901   0.990       .  S
O1887      H1908   0.990       .  S
O1888      C1892   1.286       .  A
O1889      C1892   1.284   1_545  A
O1890      H1900   0.990       .  S
O1891      H1904   0.990       .  S
C1892      C2184   1.491       .  S
Zr1915     O1916   2.441       .  S
Zr1915     O1917   2.462       .  S
Zr1915     O1918   2.467       .  S
Zr1915     O1921   2.459       .  S
Zr1915     O1923   2.378       .  S
Zr1915     O1924   2.392       .  S
Zr1915     O1925   2.419       .  S
Zr1915     O1926   2.405       .  S
O1916      H1972   0.990       .  S
O1916      H1980   0.991       .  S
O1917      C1937   1.290       .  A
O1918      C1939   1.290       .  A
O1919     Zr1929   2.420       .  S
O1919      C1938   1.282       .  A
O1920     Zr1928   2.419       .  S
O1920      C1939   1.281       .  A
O1921      C1938   1.288       .  A
O1922     Zr1930   2.391       .  S
O1922      C1937   1.275       .  A
O1923     Zr1928   2.388       .  S
O1923     Zr1930   2.386       .  S
O1924     Zr1929   2.396       .  S
O1924     Zr1930   2.386       .  S
O1924      H1959   0.966       .  S
O1925     Zr1928   2.396       .  S
O1925     Zr1945   2.397       .  S
O1925      H1962   0.975       .  S
O1926     Zr1929   2.384       .  S
O1926     Zr1945   2.386       .  S
Zr1927     O1952   2.441       .  S
Zr1927     O1946   2.446       .  S
Zr1927     O1954   2.449       .  S
Zr1927     O1942   2.456       .  S
Zr1927     O1933   2.400       .  S
Zr1927     O1934   2.405       .  S
Zr1927     O1935   2.381       .  S
Zr1927     O1936   2.382       .  S
Zr1928     O1947   2.437       .  S
Zr1928     O1940   2.434       .  S
Zr1928     O1941   2.401       .  S
Zr1928     O1934   2.399       .  S
Zr1928     O1935   2.399       .  S
Zr1929     O1931   2.435       .  S
Zr1929     O1953   2.439       .  S
Zr1929     O1955   2.422       .  S
Zr1929     O1933   2.387       .  S
Zr1929     O1936   2.392       .  S
Zr1930     O1956   2.435       .  S
Zr1930     O1957   2.436       .  S
Zr1930     O1932   2.437       .  S
Zr1930     O1933   2.384       .  S
Zr1930     O1934   2.382       .  S
O1931      H1968   0.990       .  S
O1932      H1963   0.990       .  S
O1932      H1977   0.990       .  S
O1934      H1960   0.966       .  S
O1935     Zr1945   2.377       .  S
O1936     Zr1945   2.376       .  S
O1936      H1961   0.959       .  S
C1937      C2159   1.492       .  S
C1938      C2565   1.472       .  S
C1939      C2733   1.490       .  S
O1940      H1976   0.990       .  S
O1941      C1943   1.278       .  A
O1942      C1943   1.290       .  A
C1943      C2243   1.487       .  S
O1944     Zr1945   2.438       .  S
O1944      H1973   0.990       .  S
Zr1945     O1948   2.437       .  S
Zr1945     O1949   2.439       .  S
Zr1945     O1950   2.415       .  S
O1946      C1951   1.287       .  A
O1947      H1964   0.990       .  S
O1947      H1979   0.990       .  S
O1948      H1965   0.990       .  S
O1949      H1969   0.989       .  S
O1949      H1978   0.990       .  S
O1950      C1951   1.280       .  A
C1951      C2170   1.484       .  S
O1952      H1971   0.990       .  S
O1952      H1975   0.990       .  S
O1953      H1967   0.990       .  S
O1953      H1974   0.990       .  S
O1954      C1958   1.289       .  A
O1955      C1958   1.282       .  A
O1956      H1966   0.990       .  S
O1957      H1970   0.990       .  S
C1958      C2142   1.487       .  S
Zr1981     O1982   2.441       .  S
Zr1981     O1983   2.452       .  S
Zr1981     O1984   2.461       .  S
Zr1981     O1987   2.458       .  S
Zr1981     O1989   2.383       .  S
Zr1981     O1990   2.392       .  S
Zr1981     O1991   2.417       .  S
Zr1981     O1992   2.396       .  S
O1982      H2038   0.990       .  S
O1982      H2046   0.991       .  S
O1983      C2003   1.286       .  A
O1984      C2005   1.289       .  A
O1985     Zr1995   2.420       .  S
O1985      C2004   1.282       .  A
O1986     Zr1994   2.428       .  S
O1986      C2005   1.284       .  A
O1987      C2004   1.288       .  A
O1988     Zr1996   2.401       .  S
O1988      C2003   1.278       .  A
O1989     Zr1994   2.395       .  S
O1989     Zr1996   2.379       .  S
O1990     Zr1995   2.398       .  S
O1990     Zr1996   2.383       .  S
O1990      H2025   0.972       .  S
O1991     Zr1994   2.402       .  S
O1991     Zr2011   2.385       .  S
O1991      H2028   0.950       .  S
O1992     Zr1995   2.384       .  S
O1992     Zr2011   2.376       .  S
Zr1993     O2018   2.433       .  S
Zr1993     O2012   2.455       .  S
Zr1993     O2020   2.452       .  S
Zr1993     O2008   2.451       .  S
Zr1993     O1999   2.399       .  S
Zr1993     O2000   2.414       .  S
Zr1993     O2001   2.382       .  S
Zr1993     O2002   2.387       .  S
Zr1994     O2013   2.436       .  S
Zr1994     O2006   2.435       .  S
Zr1994     O2007   2.429       .  S
Zr1994     O2000   2.399       .  S
Zr1994     O2001   2.395       .  S
Zr1995     O1997   2.436       .  S
Zr1995     O2019   2.437       .  S
Zr1995     O2021   2.425       .  S
Zr1995     O1999   2.381       .  S
Zr1995     O2002   2.395       .  S
Zr1996     O2022   2.435       .  S
Zr1996     O2023   2.435       .  S
Zr1996     O1998   2.437       .  S
Zr1996     O1999   2.385       .  S
Zr1996     O2000   2.387       .  S
O1997      H2034   0.990       .  S
O1998      H2029   0.990       .  S
O1998      H2043   0.990       .  S
O2000      H2026   0.963       .  S
O2001     Zr2011   2.379       .  S
O2002     Zr2011   2.384       .  S
O2002      H2027   0.968       .  S
C2003      C2128   1.491       .  S
C2004      C2537   1.468       .  S
C2005      C2691   1.492       .  S
O2006      H2042   0.990       .  S
O2007      C2009   1.285       .  A
O2008      C2009   1.286       .  A
C2009      C2257   1.488       .  S
O2010     Zr2011   2.439       .  S
O2010      H2039   0.991       .  S
Zr2011     O2014   2.436       .  S
Zr2011     O2015   2.439       .  S
Zr2011     O2016   2.396       .  S
O2012      C2017   1.286       .  A
O2013      H2030   0.990       .  S
O2013      H2045   0.990       .  S
O2014      H2031   0.990       .  S
O2015      H2035   0.990       .  S
O2015      H2044   0.989       .  S
O2016      C2017   1.278       .  A
C2017      C2114   1.490       .  S
O2018      H2037   0.990       .  S
O2018      H2041   0.990       .  S
O2019      H2033   0.990       .  S
O2019      H2040   0.990       .  S
O2020      C2024   1.286       .  A
O2021      C2024   1.285       .  A
O2022      H2032   0.990       .  S
O2023      H2036   0.990       .  S
C2024      C2145   1.490       .  S
Zr2047     O2048   2.439       .  S
Zr2047     O2049   2.459       .  S
Zr2047     O2050   2.453       .  S
Zr2047     O2053   2.469       .  S
Zr2047     O2055   2.391       .  S
Zr2047     O2056   2.393       .  S
Zr2047     O2057   2.421       .  S
Zr2047     O2058   2.399       .  S
O2048      H2104   0.990       .  S
O2048      H2112   0.990       .  S
O2049      C2069   1.287       .  A
O2050      C2071   1.286       .  A
O2051     Zr2061   2.408       .  S
O2051      C2070   1.283       .  A
O2052     Zr2060   2.441       .  S
O2052      C2071   1.287       .  A
O2053      C2070   1.289       .  A
O2054     Zr2062   2.394       .  S
O2054      C2069   1.277       .  A
O2055     Zr2060   2.397       .  S
O2055     Zr2062   2.386       .  S
O2056     Zr2061   2.391       .  S
O2056     Zr2062   2.381       .  S
O2056      H2091   0.966       .  S
O2057     Zr2060   2.400       .  S
O2057     Zr2077   2.378       .  S
O2057      H2094   0.953       .  S
O2058     Zr2061   2.381       .  S
O2058     Zr2077   2.383       .  S
Zr2059     O2084   2.439       .  S
Zr2059     O2078   2.456   1_565  S
Zr2059     O2086   2.457       .  S
Zr2059     O2074   2.457       .  S
Zr2059     O2065   2.402       .  S
Zr2059     O2066   2.419       .  S
Zr2059     O2067   2.386       .  S
Zr2059     O2068   2.384       .  S
Zr2060     O2079   2.436       .  S
Zr2060     O2072   2.435       .  S
Zr2060     O2073   2.435       .  S
Zr2060     O2066   2.402       .  S
Zr2060     O2067   2.398       .  S
Zr2061     O2063   2.435       .  S
Zr2061     O2085   2.436       .  S
Zr2061     O2087   2.416       .  S
Zr2061     O2065   2.383       .  S
Zr2061     O2068   2.392       .  S
Zr2062     O2088   2.435       .  S
Zr2062     O2089   2.436       .  S
Zr2062     O2064   2.437       .  S
Zr2062     O2065   2.385       .  S
Zr2062     O2066   2.378       .  S
O2063      H2100   0.990       .  S
O2064      H2095   0.990       .  S
O2064      H2109   0.990       .  S
O2066      H2092   0.964       .  S
O2067     Zr2077   2.379       .  S
O2068     Zr2077   2.380       .  S
O2068      H2093   0.961       .  S
C2069      C2117   1.492       .  S
C2070      C2481   1.497       .  S
C2071      C2677   1.487       .  S
O2072      H2108   0.990       .  S
O2073      C2075   1.286       .  A
O2074      C2075   1.288       .  A
C2075      C2313   1.490       .  S
O2076     Zr2077   2.439       .  S
O2076      H2105   0.990       .  S
Zr2077     O2080   2.438       .  S
Zr2077     O2081   2.438       .  S
Zr2077     O2082   2.394   1_565  S
O2078      C2083   1.286       .  A
O2079      H2096   0.990       .  S
O2079      H2111   0.990       .  S
O2080      H2097   0.990   1_565  S
O2081      H2101   0.990   1_565  S
O2081      H2110   0.990       .  S
O2082      C2083   1.278       .  A
C2083      C2131   1.490       .  S
O2084      H2103   0.990       .  S
O2084      H2107   0.990   1_565  S
O2085      H2099   0.990       .  S
O2085      H2106   0.990       .  S
O2086      C2090   1.289       .  A
O2087      C2090   1.281       .  A
O2088      H2098   0.990       .  S
O2089      H2102   0.990       .  S
C2090      C2187   1.488       .  S
C2113      C2114   1.409       .  A
C2113      C2118   1.399       .  A
C2113      H2120   1.084       .  S
C2114      C2115   1.411       .  A
C2115      C2116   1.399       .  A
C2115      N2122   1.429       .  S
C2116      C2117   1.411       .  A
C2116      H2121   1.084       .  S
C2117      C2118   1.412       .  A
C2118      N2119   1.428       .  S
N2119      O2123   1.262       .  A
N2119      O2124   1.262       .  A
N2122      O2126   1.262       .  A
N2122      O2125   1.262       .  A
C2127      C2128   1.410       .  A
C2127      C2132   1.400       .  A
C2127      H2134   1.084       .  S
C2128      C2129   1.412       .  A
C2129      C2130   1.398       .  A
C2129      N2136   1.429       .  S
C2130      C2131   1.410       .  A
C2130      H2135   1.084       .  S
C2131      C2132   1.411       .  A
C2132      N2133   1.429       .  S
N2133      O2137   1.262       .  A
N2133      O2138   1.262       .  A
N2136      O2140   1.262       .  A
N2136      O2139   1.262       .  A
C2141      C2142   1.405       .  A
C2141      C2146   1.404       .  A
C2141      H2148   1.084       .  S
C2142      C2143   1.414       .  A
C2143      C2144   1.397       .  A
C2143      N2150   1.429       .  S
C2144      C2145   1.405       .  A
C2144      H2149   1.084       .  S
C2145      C2146   1.416       .  A
C2146      N2147   1.428       .  S
N2147      O2151   1.262       .  A
N2147      O2152   1.262       .  A
N2150      O2154   1.262       .  A
N2150      O2153   1.262       .  A
C2155      C2156   1.401       .  A
C2155      C2160   1.398       .  A
C2155      H2162   1.084       .  S
C2156      C2157   1.422       .  A
C2157      C2158   1.399       .  A
C2157      N2164   1.429       .  S
C2158      C2159   1.402       .  A
C2158      H2163   1.084       .  S
C2159      C2160   1.421       .  A
C2160      N2161   1.429       .  S
N2161      O2165   1.262       .  A
N2161      O2166   1.262       .  A
N2164      O2168   1.262       .  A
N2164      O2167   1.262       .  A
C2169      C2170   1.402       .  A
C2169      C2174   1.401       .  A
C2169      H2176   1.084       .  S
C2170      C2171   1.415       .  A
C2171      C2172   1.399       .  A
C2171      N2178   1.428       .  S
C2172      C2173   1.401       .  A
C2172      H2177   1.084       .  S
C2173      C2174   1.417       .  A
C2174      N2175   1.429       .  S
N2175      O2179   1.262       .  A
N2175      O2180   1.262       .  A
N2178      O2182   1.262       .  A
N2178      O2181   1.262       .  A
C2183      C2184   1.405       .  A
C2183      C2188   1.395       .  A
C2183      H2190   1.084       .  S
C2184      C2185   1.416       .  A
C2185      C2186   1.406       .  A
C2185      N2192   1.428       .  S
C2186      C2187   1.406       .  A
C2186      H2191   1.084       .  S
C2187      C2188   1.414       .  A
C2188      N2189   1.429       .  S
N2189      O2193   1.262       .  A
N2189      O2194   1.262       .  A
N2192      O2196   1.262   1_565  A
N2192      O2195   1.262       .  A
C2197      C2198   1.401       .  A
C2197      C2202   1.398   1_665  A
C2197      H2204   1.084   1_565  S
C2198      C2199   1.417       .  A
C2199      C2200   1.400   1_655  A
C2199      N2206   1.428       .  S
C2200      C2201   1.397       .  A
C2200      H2205   1.084       .  S
C2201      C2202   1.410   1_565  A
C2202      N2203   1.428       .  S
N2203      O2207   1.262       .  A
N2203      O2208   1.262       .  A
N2206      O2210   1.262       .  A
N2206      O2209   1.262       .  A
C2211      C2212   1.410       .  A
C2211      C2216   1.399       .  A
C2211      H2218   1.083       .  S
C2212      C2213   1.413       .  A
C2213      C2214   1.400       .  A
C2213      N2220   1.429       .  S
C2214      C2215   1.410       .  A
C2214      H2219   1.084       .  S
C2215      C2216   1.412       .  A
C2216      N2217   1.428       .  S
N2217      O2221   1.262       .  A
N2217      O2222   1.262       .  A
N2220      O2224   1.262       .  A
N2220      O2223   1.262       .  A
C2225      C2226   1.407       .  A
C2225      C2230   1.397       .  A
C2225      H2232   1.084       .  S
C2226      C2227   1.411       .  A
C2227      C2228   1.401       .  A
C2227      N2234   1.429       .  S
C2228      C2229   1.409       .  A
C2228      H2233   1.084       .  S
C2229      C2230   1.410       .  A
C2230      N2231   1.428       .  S
N2231      O2235   1.262       .  A
N2231      O2236   1.262       .  A
N2234      O2238   1.262       .  A
N2234      O2237   1.262       .  A
C2239      C2240   1.396       .  A
C2239      C2244   1.397   1_655  A
C2239      H2246   1.084       .  S
C2240      C2241   1.407       .  A
C2241      C2242   1.395   1_655  A
C2241      N2248   1.428       .  S
C2242      C2243   1.406       .  A
C2242      H2247   1.083       .  S
C2243      C2244   1.422       .  A
C2244      N2245   1.429       .  S
N2245      O2249   1.262       .  A
N2245      O2250   1.262       .  A
N2248      O2252   1.261       .  A
N2248      O2251   1.262       .  A
C2253      C2254   1.404       .  A
C2253      C2258   1.398   1_655  A
C2253      H2260   1.084       .  S
C2254      C2255   1.413       .  A
C2255      C2256   1.402   1_655  A
C2255      N2262   1.428       .  S
C2256      C2257   1.407       .  A
C2256      H2261   1.084       .  S
C2257      C2258   1.415       .  A
C2258      N2259   1.428       .  S
N2259      O2263   1.262       .  A
N2259      O2264   1.262       .  A
N2262      O2266   1.262       .  A
N2262      O2265   1.262       .  A
C2267      C2268   1.405       .  A
C2267      C2272   1.405       .  A
C2267      H2274   1.084       .  S
C2268      C2269   1.412       .  A
C2269      C2270   1.398       .  A
C2269      N2276   1.429       .  S
C2270      C2271   1.407       .  A
C2270      H2275   1.084       .  S
C2271      C2272   1.417       .  A
C2272      N2273   1.428       .  S
N2273      O2277   1.262       .  A
N2273      O2278   1.262       .  A
N2276      O2280   1.262       .  A
N2276      O2279   1.262       .  A
C2281      C2282   1.411       .  A
C2281      C2286   1.402       .  A
C2281      H2288   1.083       .  S
C2282      C2283   1.412       .  A
C2283      C2284   1.397       .  A
C2283      N2290   1.429       .  S
C2284      C2285   1.410       .  A
C2284      H2289   1.083       .  S
C2285      C2286   1.414       .  A
C2286      N2287   1.429       .  S
N2287      O2291   1.262       .  A
N2287      O2292   1.262       .  A
N2290      O2294   1.262       .  A
N2290      O2293   1.262       .  A
C2295      C2296   1.410       .  A
C2295      C2300   1.396       .  A
C2295      H2302   1.084       .  S
C2296      C2297   1.412       .  A
C2297      C2298   1.403       .  A
C2297      N2304   1.429       .  S
C2298      C2299   1.412       .  A
C2298      H2303   1.084       .  S
C2299      C2300   1.411       .  A
C2300      N2301   1.428       .  S
N2301      O2305   1.262       .  A
N2301      O2306   1.262       .  A
N2304      O2308   1.262       .  A
N2304      O2307   1.262       .  A
C2309      C2310   1.404       .  A
C2309      C2314   1.400   1_655  A
C2309      H2316   1.084       .  S
C2310      C2311   1.415       .  A
C2311      C2312   1.402   1_655  A
C2311      N2318   1.429       .  S
C2312      C2313   1.406       .  A
C2312      H2317   1.084       .  S
C2313      C2314   1.415       .  A
C2314      N2315   1.428       .  S
N2315      O2319   1.262       .  A
N2315      O2320   1.262       .  A
N2318      O2322   1.262   1_565  A
N2318      O2321   1.262       .  A
C2323      C2324   1.404       .  A
C2323      C2328   1.406       .  A
C2323      H2330   1.084       .  S
C2324      C2325   1.410       .  A
C2325      C2326   1.396       .  A
C2325      N2332   1.429       .  S
C2326      C2327   1.408       .  A
C2326      H2331   1.084       .  S
C2327      C2328   1.418       .  A
C2328      N2329   1.428       .  S
N2329      O2333   1.262   1_565  A
N2329      O2334   1.262       .  A
N2332      O2336   1.262       .  A
N2332      O2335   1.262       .  A
C2337      C2338   1.407       .  A
C2337      C2342   1.393       .  A
C2337      H2344   1.084       .  S
C2338      C2339   1.415       .  A
C2339      C2340   1.404       .  A
C2339      N2346   1.428       .  S
C2340      C2341   1.406       .  A
C2340      H2345   1.084       .  S
C2341      C2342   1.410       .  A
C2342      N2343   1.429       .  S
N2343      O2347   1.262       .  A
N2343      O2348   1.262       .  A
N2346      O2350   1.262       .  A
N2346      O2349   1.262       .  A
C2351      C2352   1.402       .  A
C2351      C2356   1.400       .  A
C2351      H2358   1.084       .  S
C2352      C2353   1.421       .  A
C2353      C2354   1.399       .  A
C2353      N2360   1.429       .  S
C2354      C2355   1.401       .  A
C2354      H2359   1.084       .  S
C2355      C2356   1.421       .  A
C2356      N2357   1.429       .  S
N2357      O2361   1.262       .  A
N2357      O2362   1.262       .  A
N2360      O2364   1.262       .  A
N2360      O2363   1.262       .  A
C2365      C2366   1.402       .  A
C2365      C2370   1.399       .  A
C2365      H2372   1.084       .  S
C2366      C2367   1.420       .  A
C2367      C2368   1.398       .  A
C2367      N2374   1.429       .  S
C2368      C2369   1.401       .  A
C2368      H2373   1.084       .  S
C2369      C2370   1.420       .  A
C2370      N2371   1.430       .  S
N2371      O2375   1.262       .  A
N2371      O2376   1.262       .  A
N2374      O2378   1.262       .  A
N2374      O2377   1.262       .  A
C2379      C2380   1.402       .  A
C2379      C2384   1.403       .  A
C2379      H2386   1.084       .  S
C2380      C2381   1.403       .  A
C2381      C2382   1.394       .  A
C2381      N2388   1.429       .  S
C2382      C2383   1.413       .  A
C2382      H2387   1.083       .  S
C2383      C2384   1.416       .  A
C2384      N2385   1.427       .  S
N2385      O2389   1.262       .  A
N2385      O2390   1.262       .  A
N2388      O2392   1.262       .  A
N2388      O2391   1.262       .  A
C2393      C2394   1.407       .  A
C2393      C2398   1.399       .  A
C2393      H2400   1.084       .  S
C2394      C2395   1.408       .  A
C2395      C2396   1.400       .  A
C2395      N2402   1.428       .  S
C2396      C2397   1.403       .  A
C2396      H2401   1.084       .  S
C2397      C2398   1.405       .  A
C2398      N2399   1.428       .  S
N2399      O2403   1.262       .  A
N2399      O2404   1.262       .  A
N2402      O2406   1.262       .  A
N2402      O2405   1.262       .  A
C2407      C2408   1.402       .  A
C2407      C2412   1.394       .  A
C2407      H2414   1.084       .  S
C2408      C2409   1.414       .  A
C2409      C2410   1.408       .  A
C2409      N2416   1.428       .  S
C2410      C2411   1.409       .  A
C2410      H2415   1.084       .  S
C2411      C2412   1.417       .  A
C2412      N2413   1.429       .  S
N2413      O2417   1.262       .  A
N2413      O2418   1.262       .  A
N2416      O2420   1.262       .  A
N2416      O2419   1.262       .  A
C2421      C2422   1.407       .  A
C2421      C2426   1.401       .  A
C2421      H2428   1.084       .  S
C2422      C2423   1.412       .  A
C2423      C2424   1.403       .  A
C2423      N2430   1.429       .  S
C2424      C2425   1.408       .  A
C2424      H2429   1.084       .  S
C2425      C2426   1.410       .  A
C2426      N2427   1.428       .  S
N2427      O2431   1.262       .  A
N2427      O2432   1.262       .  A
N2430      O2434   1.262       .  A
N2430      O2433   1.262       .  A
C2435      C2436   1.411       .  A
C2435      C2440   1.399       .  A
C2435      H2442   1.084       .  S
C2436      C2437   1.413       .  A
C2437      C2438   1.401       .  A
C2437      N2444   1.429       .  S
C2438      C2439   1.410       .  A
C2438      H2443   1.084       .  S
C2439      C2440   1.411       .  A
C2440      N2441   1.429       .  S
N2441      O2445   1.262   1_545  A
N2441      O2446   1.262       .  A
N2444      O2448   1.262       .  A
N2444      O2447   1.262       .  A
C2449      C2450   1.401       .  A
C2449      C2454   1.401       .  A
C2449      H2456   1.084       .  S
C2450      C2451   1.417       .  A
C2451      C2452   1.404       .  A
C2451      N2458   1.429       .  S
C2452      C2453   1.400       .  A
C2452      H2457   1.084       .  S
C2453      C2454   1.412       .  A
C2454      N2455   1.428       .  S
N2455      O2459   1.262       .  A
N2455      O2460   1.262       .  A
N2458      O2462   1.262       .  A
N2458      O2461   1.262       .  A
C2463      C2464   1.405       .  A
C2463      C2468   1.397       .  A
C2463      H2470   1.084       .  S
C2464      C2465   1.419       .  A
C2465      C2466   1.408       .  A
C2465      N2472   1.428       .  S
C2466      C2467   1.405       .  A
C2466      H2471   1.084       .  S
C2467      C2468   1.415       .  A
C2468      N2469   1.429       .  S
N2469      O2473   1.262       .  A
N2469      O2474   1.262       .  A
N2472      O2476   1.262       .  A
N2472      O2475   1.262       .  A
C2477      C2478   1.405       .  A
C2477      C2482   1.408       .  A
C2477      H2484   1.084       .  S
C2478      C2479   1.406       .  A
C2479      C2480   1.392       .  A
C2479      N2486   1.429       .  S
C2480      C2481   1.410       .  A
C2480      H2485   1.083       .  S
C2481      C2482   1.418       .  A
C2482      N2483   1.428       .  S
N2483      O2487   1.262       .  A
N2483      O2488   1.262       .  A
N2486      O2490   1.262       .  A
N2486      O2489   1.262       .  A
C2491      C2492   1.397       .  A
C2491      C2496   1.395       .  A
C2491      H2498   1.084       .  S
C2492      C2493   1.413       .  A
C2493      C2494   1.397       .  A
C2493      N2500   1.429       .  S
C2494      C2495   1.396       .  A
C2494      H2499   1.084       .  S
C2495      C2496   1.410       .  A
C2496      N2497   1.429       .  S
N2497      O2501   1.261       .  A
N2497      O2502   1.262       .  A
N2500      O2504   1.262       .  A
N2500      O2503   1.262       .  A
C2505      C2506   1.407       .  A
C2505      C2510   1.398       .  A
C2505      H2512   1.084       .  S
C2506      C2507   1.412       .  A
C2507      C2508   1.403       .  A
C2507      N2514   1.429       .  S
C2508      C2509   1.409       .  A
C2508      H2513   1.084       .  S
C2509      C2510   1.412       .  A
C2510      N2511   1.429       .  S
N2511      O2515   1.262       .  A
N2511      O2516   1.262       .  A
N2514      O2518   1.262       .  A
N2514      O2517   1.262       .  A
C2519      C2520   1.403       .  A
C2519      C2524   1.401       .  A
C2519      H2526   1.084       .  S
C2520      C2521   1.421       .  A
C2521      C2522   1.401       .  A
C2521      N2528   1.429       .  S
C2522      C2523   1.401   1_545  A
C2522      H2527   1.084       .  S
C2523      C2524   1.419   1_565  A
C2524      N2525   1.429       .  S
N2525      O2529   1.262       .  A
N2525      O2530   1.262       .  A
N2528      O2532   1.262       .  A
N2528      O2531   1.262       .  A
C2533      C2534   1.401       .  A
C2533      C2538   1.399       .  A
C2533      H2540   1.084       .  S
C2534      C2535   1.418       .  A
C2535      C2536   1.400       .  A
C2535      N2542   1.429       .  S
C2536      C2537   1.397       .  A
C2536      H2541   1.084       .  S
C2537      C2538   1.409       .  A
C2538      N2539   1.427       .  S
N2539      O2543   1.262       .  A
N2539      O2544   1.262       .  A
N2542      O2546   1.262       .  A
N2542      O2545   1.262       .  A
C2547      C2548   1.401       .  A
C2547      C2552   1.397       .  A
C2547      H2554   1.084       .  S
C2548      C2549   1.414       .  A
C2549      C2550   1.400       .  A
C2549      N2556   1.428       .  S
C2550      C2551   1.398       .  A
C2550      H2555   1.084       .  S
C2551      C2552   1.410       .  A
C2552      N2553   1.429       .  S
N2553      O2557   1.262       .  A
N2553      O2558   1.262       .  A
N2556      O2560   1.262       .  A
N2556      O2559   1.262       .  A
C2561      C2562   1.409       .  A
C2561      C2566   1.400       .  A
C2561      H2568   1.084       .  S
C2562      C2563   1.413       .  A
C2563      C2564   1.404       .  A
C2563      N2570   1.428       .  S
C2564      C2565   1.403       .  A
C2564      H2569   1.084       .  S
C2565      C2566   1.404       .  A
C2566      N2567   1.428       .  S
N2567      O2571   1.262       .  A
N2567      O2572   1.262       .  A
N2570      O2574   1.262       .  A
N2570      O2573   1.262       .  A
C2575      C2576   1.408       .  A
C2575      C2580   1.398       .  A
C2575      H2582   1.083       .  S
C2576      C2577   1.423       .  A
C2577      C2578   1.402       .  A
C2577      N2584   1.429       .  S
C2578      C2579   1.398       .  A
C2578      H2583   1.084       .  S
C2579      C2580   1.407       .  A
C2580      N2581   1.429       .  S
N2581      O2585   1.262       .  A
N2581      O2586   1.262       .  A
N2584      O2588   1.262       .  A
N2584      O2587   1.262       .  A
C2589      C2590   1.404       .  A
C2589      C2594   1.404       .  A
C2589      H2596   1.084       .  S
C2590      C2591   1.412       .  A
C2591      C2592   1.398       .  A
C2591      N2598   1.429       .  S
C2592      C2593   1.407       .  A
C2592      H2597   1.084       .  S
C2593      C2594   1.417       .  A
C2594      N2595   1.427       .  S
N2595      O2599   1.262       .  A
N2595      O2600   1.262       .  A
N2598      O2602   1.262       .  A
N2598      O2601   1.262       .  A
C2603      C2604   1.410       .  A
C2603      C2608   1.401       .  A
C2603      H2610   1.084       .  S
C2604      C2605   1.413       .  A
C2605      C2606   1.399       .  A
C2605      N2612   1.428       .  S
C2606      C2607   1.408       .  A
C2606      H2611   1.084       .  S
C2607      C2608   1.412       .  A
C2608      N2609   1.429       .  S
N2609      O2613   1.262       .  A
N2609      O2614   1.262       .  A
N2612      O2616   1.262       .  A
N2612      O2615   1.262       .  A
C2617      C2618   1.401       .  A
C2617      C2622   1.398       .  A
C2617      H2624   1.084       .  S
C2618      C2619   1.419       .  A
C2619      C2620   1.398       .  A
C2619      N2626   1.429       .  S
C2620      C2621   1.401       .  A
C2620      H2625   1.084       .  S
C2621      C2622   1.419       .  A
C2622      N2623   1.429       .  S
N2623      O2627   1.262       .  A
N2623      O2628   1.262       .  A
N2626      O2630   1.262       .  A
N2626      O2629   1.262       .  A
C2631      C2632   1.400       .  A
C2631      C2636   1.399       .  A
C2631      H2638   1.084       .  S
C2632      C2633   1.417       .  A
C2633      C2634   1.397       .  A
C2633      N2640   1.427       .  S
C2634      C2635   1.394       .  A
C2634      H2639   1.084       .  S
C2635      C2636   1.410       .  A
C2636      N2637   1.427       .  S
N2637      O2641   1.262       .  A
N2637      O2642   1.262   1_545  A
N2640      O2644   1.262       .  A
N2640      O2643   1.262       .  A
C2645      C2646   1.407       .  A
C2645      C2650   1.402       .  A
C2645      H2652   1.084       .  S
C2646      C2647   1.413       .  A
C2647      C2648   1.405       .  A
C2647      N2654   1.428       .  S
C2648      C2649   1.403       .  A
C2648      H2653   1.084       .  S
C2649      C2650   1.407       .  A
C2650      N2651   1.428       .  S
N2651      O2655   1.262       .  A
N2651      O2656   1.262       .  A
N2654      O2658   1.262       .  A
N2654      O2657   1.262       .  A
C2659      C2660   1.401       .  A
C2659      C2664   1.393       .  A
C2659      H2666   1.085       .  S
C2660      C2661   1.412       .  A
C2661      C2662   1.407       .  A
C2661      N2668   1.427       .  S
C2662      C2663   1.408       .  A
C2662      H2667   1.084       .  S
C2663      C2664   1.418       .  A
C2664      N2665   1.429       .  S
N2665      O2669   1.262       .  A
N2665      O2670   1.262       .  A
N2668      O2672   1.262       .  A
N2668      O2671   1.262       .  A
C2673      C2674   1.403       .  A
C2673      C2678   1.403       .  A
C2673      H2680   1.084       .  S
C2674      C2675   1.415       .  A
C2675      C2676   1.401       .  A
C2675      N2682   1.429       .  S
C2676      C2677   1.402       .  A
C2676      H2681   1.084       .  S
C2677      C2678   1.416       .  A
C2678      N2679   1.429       .  S
N2679      O2683   1.262       .  A
N2679      O2684   1.262       .  A
N2682      O2686   1.262       .  A
N2682      O2685   1.262       .  A
C2687      C2688   1.405       .  A
C2687      C2692   1.397       .  A
C2687      H2694   1.084       .  S
C2688      C2689   1.415       .  A
C2689      C2690   1.406       .  A
C2689      N2696   1.428       .  S
C2690      C2691   1.409       .  A
C2690      H2695   1.084       .  S
C2691      C2692   1.414       .  A
C2692      N2693   1.429       .  S
N2693      O2697   1.262       .  A
N2693      O2698   1.262       .  A
N2696      O2700   1.262       .  A
N2696      O2699   1.262       .  A
C2701      C2702   1.411       .  A
C2701      C2706   1.399       .  A
C2701      H2708   1.083       .  S
C2702      C2703   1.412       .  A
C2703      C2704   1.396       .  A
C2703      N2710   1.429       .  S
C2704      C2705   1.409       .  A
C2704      H2709   1.083       .  S
C2705      C2706   1.413       .  A
C2706      N2707   1.429       .  S
N2707      O2711   1.262       .  A
N2707      O2712   1.262       .  A
N2710      O2714   1.262       .  A
N2710      O2713   1.262       .  A
C2715      C2716   1.401       .  A
C2715      C2720   1.399       .  A
C2715      H2722   1.084       .  S
C2716      C2717   1.420       .  A
C2717      C2718   1.401       .  A
C2717      N2724   1.429       .  S
C2718      C2719   1.401       .  A
C2718      H2723   1.084       .  S
C2719      C2720   1.418       .  A
C2720      N2721   1.429       .  S
N2721      O2725   1.262       .  A
N2721      O2726   1.262       .  A
N2724      O2728   1.262       .  A
N2724      O2727   1.262       .  A
C2729      C2730   1.404       .  A
C2729      C2734   1.398   1_556  A
C2729      H2736   1.084       .  S
C2730      C2731   1.416       .  A
C2731      C2732   1.406   1_556  A
C2731      N2738   1.429       .  S
C2732      C2733   1.406       .  A
C2732      H2737   1.084       .  S
C2733      C2734   1.415       .  A
C2734      N2735   1.429       .  S
N2735      O2739   1.262       .  A
N2735      O2740   1.262       .  A
N2738      O2742   1.262       .  A
N2738      O2741   1.262       .  A
C2743      C2744   1.405       .  A
C2743      C2748   1.403       .  A
C2743      H2750   1.084       .  S
C2744      C2745   1.417       .  A
C2745      C2746   1.400       .  A
C2745      N2752   1.429       .  S
C2746      C2747   1.405       .  A
C2746      H2751   1.084       .  S
C2747      C2748   1.414       .  A
C2748      N2749   1.427       .  S
N2749      O2753   1.262       .  A
N2749      O2754   1.262       .  A
N2752      O2756   1.262       .  A
N2752      O2755   1.262       .  A
C2757      C2758   1.403       .  A
C2757      C2762   1.400   1_554  A
C2757      H2764   1.084       .  S
C2758      C2759   1.414       .  A
C2759      C2760   1.403   1_554  A
C2759      N2766   1.429       .  S
C2760      C2761   1.405       .  A
C2760      H2765   1.084       .  S
C2761      C2762   1.413       .  A
C2762      N2763   1.428       .  S
N2763      O2767   1.262       .  A
N2763      O2768   1.262       .  A
N2766      O2770   1.262       .  A
N2766      O2769   1.262       .  A
C2771      C2772   1.412       .  A
C2771      C2776   1.401       .  A
C2771      H2778   1.083       .  S
C2772      C2773   1.411       .  A
C2773      C2774   1.398       .  A
C2773      N2780   1.429       .  S
C2774      C2775   1.412       .  A
C2774      H2779   1.083       .  S
C2775      C2776   1.411       .  A
C2776      N2777   1.428       .  S
N2777      O2781   1.262       .  A
N2777      O2782   1.262       .  A
N2780      O2784   1.262       .  A
N2780      O2783   1.262       .  A
C2785      C2786   1.410       .  A
C2785      C2790   1.398       .  A
C2785      H2792   1.083       .  S
C2786      C2787   1.413       .  A
C2787      C2788   1.397       .  A
C2787      N2794   1.429       .  S
C2788      C2789   1.410       .  A
C2788      H2793   1.083       .  S
C2789      C2790   1.412       .  A
C2790      N2791   1.429       .  S
N2791      O2795   1.262       .  A
N2791      O2796   1.262       .  A
N2794      O2798   1.262       .  A
N2794      O2797   1.262       .  A
C2799      C2800   1.405       .  A
C2799      C2804   1.397       .  A
C2799      H2806   1.084       .  S
C2800      C2801   1.417       .  A
C2801      C2802   1.404       .  A
C2801      N2808   1.428       .  S
C2802      C2803   1.404       .  A
C2802      H2807   1.084       .  S
C2803      C2804   1.414       .  A
C2804      N2805   1.429       .  S
N2805      O2809   1.262   1_565  A
N2805      O2810   1.262       .  A
N2808      O2812   1.262       .  A
N2808      O2811   1.262       .  A
C2813      C2814   1.406       .  A
C2813      C2818   1.404   1_556  A
C2813      H2820   1.084       .  S
C2814      C2815   1.413       .  A
C2815      C2816   1.395   1_556  A
C2815      N2822   1.429       .  S
C2816      C2817   1.404       .  A
C2816      H2821   1.084       .  S
C2817      C2818   1.416       .  A
C2818      N2819   1.429       .  S
N2819      O2823   1.262       .  A
N2819      O2824   1.262       .  A
N2822      O2826   1.262       .  A
N2822      O2825   1.262       .  A
C2827      C2828   1.400   1_545  A
C2827      C2832   1.397   1_655  A
C2827      H2834   1.084       .  S
C2828      C2829   1.409       .  A
C2829      C2830   1.396   1_655  A
C2829      N2836   1.429       .  S
C2830      C2831   1.401       .  A
C2830      H2835   1.084       .  S
C2831      C2832   1.410   1_565  A
C2832      N2833   1.428       .  S
N2833      O2837   1.262       .  A
N2833      O2838   1.262       .  A
N2836      O2840   1.262       .  A
N2836      O2839   1.262       .  A
C2841      C2842   1.407       .  A
C2841      C2846   1.402   1_556  A
C2841      H2848   1.084       .  S
C2842      C2843   1.416       .  A
C2843      C2844   1.405   1_556  A
C2843      N2850   1.428       .  S
C2844      C2845   1.406       .  A
C2844      H2849   1.084       .  S
C2845      C2846   1.414       .  A
C2846      N2847   1.429       .  S
N2847      O2851   1.262       .  A
N2847      O2852   1.262       .  A
N2850      O2854   1.262       .  A
N2850      O2853   1.262       .  A
C2855      C2856   1.411       .  A
C2855      C2860   1.400       .  A
C2855      H2862   1.084       .  S
C2856      C2857   1.412       .  A
C2857      C2858   1.400       .  A
C2857      N2864   1.428       .  S
C2858      C2859   1.410       .  A
C2858      H2863   1.084       .  S
C2859      C2860   1.412       .  A
C2860      N2861   1.429       .  S
N2861      O2865   1.262       .  A
N2861      O2866   1.262       .  A
N2864      O2868   1.262       .  A
N2864      O2867   1.262       .  A
C2869      C2870   1.401       .  A
C2869      C2874   1.400       .  A
C2869      H2876   1.084       .  S
C2870      C2871   1.419       .  A
C2871      C2872   1.403       .  A
C2871      N2878   1.429       .  S
C2872      C2873   1.402       .  A
C2872      H2877   1.084       .  S
C2873      C2874   1.417       .  A
C2874      N2875   1.428       .  S
N2875      O2879   1.262       .  A
N2875      O2880   1.262       .  A
N2878      O2882   1.262       .  A
N2878      O2881   1.262       .  A
C2883      C2884   1.401       .  A
C2883      C2888   1.397       .  A
C2883      H2890   1.084       .  S
C2884      C2885   1.410       .  A
C2885      C2886   1.398   1_455  A
C2885      N2892   1.429       .  S
C2886      C2887   1.402       .  A
C2886      H2891   1.084       .  S
C2887      C2888   1.409   1_655  A
C2888      N2889   1.428   1_455  S
N2889      O2893   1.262       .  A
N2889      O2894   1.262       .  A
N2892      O2896   1.262       .  A
N2892      O2895   1.262       .  A
C2897      C2898   1.406       .  A
C2897      C2902   1.406       .  A
C2897      H2904   1.084       .  S
C2898      C2899   1.413       .  A
C2899      C2900   1.399       .  A
C2899      N2906   1.428       .  S
C2900      C2901   1.405       .  A
C2900      H2905   1.084       .  S
C2901      C2902   1.416       .  A
C2902      N2903   1.428       .  S
N2903      O2907   1.262       .  A
N2903      O2908   1.262       .  A
N2906      O2910   1.262       .  A
N2906      O2909   1.262       .  A
C2911      C2912   1.404       .  A
C2911      C2916   1.399   1_455  A
C2911      H2918   1.084       .  S
C2912      C2913   1.413       .  A
C2913      C2914   1.396   1_455  A
C2913      N2920   1.429       .  S
C2914      C2915   1.404       .  A
C2914      H2919   1.084       .  S
C2915      C2916   1.414       .  A
C2916      N2917   1.428       .  S
N2917      O2921   1.262       .  A
N2917      O2922   1.262       .  A
N2920      O2924   1.262       .  A
N2920      O2923   1.262       .  A
C2925      C2926   1.405       .  A
C2925      C2930   1.406       .  A
C2925      H2932   1.084       .  S
C2926      C2927   1.413       .  A
C2927      C2928   1.397       .  A
C2927      N2934   1.429       .  S
C2928      C2929   1.406       .  A
C2928      H2933   1.084       .  S
C2929      C2930   1.418       .  A
C2930      N2931   1.428       .  S
N2931      O2935   1.262       .  A
N2931      O2936   1.262       .  A
N2934      O2938   1.262       .  A
N2934      O2937   1.262       .  A
C2939      C2940   1.403       .  A
C2939      C2944   1.399       .  A
C2939      H2946   1.084       .  S
C2940      C2941   1.416       .  A
C2941      C2942   1.404       .  A
C2941      N2948   1.428       .  S
C2942      C2943   1.405       .  A
C2942      H2947   1.084       .  S
C2943      C2944   1.416       .  A
C2944      N2945   1.429       .  S
N2945      O2949   1.262       .  A
N2945      O2950   1.262       .  A
N2948      O2952   1.262       .  A
N2948      O2951   1.262       .  A
C2953      C2954   1.409       .  A
C2953      C2958   1.398       .  A
C2953      H2960   1.084       .  S
C2954      C2955   1.412       .  A
C2955      C2956   1.401       .  A
C2955      N2962   1.428       .  S
C2956      C2957   1.408       .  A
C2956      H2961   1.084       .  S
C2957      C2958   1.412       .  A
C2958      N2959   1.429       .  S
N2959      O2963   1.262       .  A
N2959      O2964   1.262       .  A
N2962      O2966   1.262       .  A
N2962      O2965   1.262       .  A
C2967      C2968   1.401       .  A
C2967      C2972   1.400       .  A
C2967      H2974   1.084       .  S
C2968      C2969   1.418       .  A
C2969      C2970   1.400       .  A
C2969      N2976   1.428       .  S
C2970      C2971   1.401       .  A
C2970      H2975   1.084       .  S
C2971      C2972   1.418       .  A
C2972      N2973   1.429       .  S
N2973      O2977   1.262       .  A
N2973      O2978   1.262       .  A
N2976      O2980   1.262       .  A
N2976      O2979   1.262       .  A
C2981      C2982   1.401       .  A
C2981      C2986   1.398   1_655  A
C2981      H2988   1.084       .  S
C2982      C2983   1.410       .  A
C2983      C2984   1.399   1_655  A
C2983      N2990   1.429       .  S
C2984      C2985   1.409       .  A
C2984      H2989   1.084       .  S
C2985      C2986   1.415       .  A
C2986      N2987   1.427       .  S
N2987      O2991   1.262   1_565  A
N2987      O2992   1.262       .  A
N2990      O2994   1.262       .  A
N2990      O2993   1.262       .  A
C2995      C2996   1.410       .  A
C2995      C3000   1.399       .  A
C2995      H3002   1.083       .  S
C2996      C2997   1.417       .  A
C2997      C2998   1.402       .  A
C2997      N3004   1.427       .  S
C2998      C2999   1.402       .  A
C2998      H3003   1.084       .  S
C2999      C3000   1.409       .  A
C3000      N3001   1.429       .  S
N3001      O3005   1.262       .  A
N3001      O3006   1.262       .  A
N3004      O3008   1.262   1_565  A
N3004      O3007   1.262       .  A
C3009      C3010   1.405       .  A
C3009      C3014   1.397       .  A
C3009      H3016   1.084       .  S
C3010      C3011   1.417       .  A
C3011      C3012   1.408       .  A
C3011      N3018   1.428       .  S
C3012      C3013   1.407       .  A
C3012      H3017   1.084       .  S
C3013      C3014   1.415       .  A
C3014      N3015   1.429       .  S
N3015      O3019   1.262       .  A
N3015      O3020   1.262       .  A
N3018      O3022   1.262       .  A
N3018      O3021   1.262       .  A
C3023      C3024   1.401       .  A
C3023      C3028   1.394       .  A
C3023      H3030   1.085       .  S
C3024      C3025   1.413       .  A
C3025      C3026   1.403       .  A
C3025      N3032   1.428       .  S
C3026      C3027   1.405       .  A
C3026      H3031   1.084       .  S
C3027      C3028   1.418       .  A
C3028      N3029   1.430       .  S
N3029      O3033   1.262       .  A
N3029      O3034   1.262       .  A
N3032      O3036   1.262       .  A
N3032      O3035   1.262       .  A
C3037      C3038   1.404       .  A
C3037      C3042   1.399       .  A
C3037      H3044   1.084       .  S
C3038      C3039   1.415       .  A
C3039      C3040   1.403       .  A
C3039      N3046   1.428       .  S
C3040      C3041   1.405       .  A
C3040      H3045   1.084       .  S
C3041      C3042   1.414       .  A
C3042      N3043   1.429       .  S
N3043      O3047   1.262       .  A
N3043      O3048   1.262       .  A
N3046      O3050   1.262       .  A
N3046      O3049   1.262       .  A
C3051      C3052   1.410       .  A
C3051      C3056   1.397       .  A
C3051      H3058   1.083       .  S
C3052      C3053   1.413       .  A
C3053      C3054   1.400       .  A
C3053      N3060   1.428       .  S
C3054      C3055   1.410       .  A
C3054      H3059   1.083       .  S
C3055      C3056   1.412       .  A
C3056      N3057   1.428       .  S
N3057      O3061   1.262       .  A
N3057      O3062   1.261       .  A
N3060      O3064   1.262       .  A
N3060      O3063   1.262       .  A
C3065      C3066   1.403       .  A
C3065      C3070   1.401       .  A
C3065      H3072   1.084       .  S
C3066      C3067   1.421       .  A
C3067      C3068   1.396       .  A
C3067      N3074   1.428       .  S
C3068      C3069   1.400   1_545  A
C3068      H3073   1.084   1_545  S
C3069      C3070   1.421   1_565  A
C3070      N3071   1.429       .  S
N3071      O3075   1.262   1_545  A
N3071      O3076   1.262       .  A
N3074      O3078   1.262       .  A
N3074      O3077   1.262       .  A
C3079      C3080   1.404       .  A
C3079      C3084   1.405       .  A
C3079      H3086   1.084       .  S
C3080      C3081   1.406       .  A
C3081      C3082   1.394       .  A
C3081      N3088   1.429       .  S
C3082      C3083   1.411       .  A
C3082      H3087   1.083       .  S
C3083      C3084   1.418       .  A
C3084      N3085   1.428       .  S
N3085      O3089   1.262       .  A
N3085      O3090   1.262       .  A
N3088      O3092   1.262       .  A
N3088      O3091   1.262       .  A
C3093      C3094   1.405       .  A
C3093      C3098   1.398   1_556  A
C3093      H3100   1.084       .  S
C3094      C3095   1.415       .  A
C3095      C3096   1.404   1_556  A
C3095      N3102   1.429       .  S
C3096      C3097   1.406       .  A
C3096      H3101   1.084       .  S
C3097      C3098   1.412       .  A
C3098      N3099   1.429       .  S
N3099      O3103   1.262       .  A
N3099      O3104   1.262       .  A
N3102      O3106   1.262       .  A
N3102      O3105   1.262       .  A
C3107      C3108   1.394       .  A
C3107      C3112   1.396       .  A
C3107      H3114   1.084       .  S
C3108      C3109   1.414       .  A
C3109      C3110   1.396       .  A
C3109      N3116   1.429       .  S
C3110      C3111   1.395       .  A
C3110      H3115   1.084       .  S
C3111      C3112   1.415       .  A
C3112      N3113   1.428       .  S
N3113      O3117   1.262       .  A
N3113      O3118   1.262       .  A
N3116      O3120   1.262       .  A
N3116      O3119   1.261       .  A
C3121      C3122   1.404       .  A
C3121      C3126   1.396       .  A
C3121      H3128   1.084       .  S
C3122      C3123   1.414       .  A
C3123      C3124   1.404       .  A
C3123      N3130   1.428       .  S
C3124      C3125   1.407       .  A
C3124      H3129   1.084       .  S
C3125      C3126   1.417       .  A
C3126      N3127   1.430       .  S
N3127      O3131   1.262       .  A
N3127      O3132   1.262       .  A
N3130      O3134   1.262       .  A
N3130      O3133   1.262       .  A
C3135      C3136   1.403       .  A
C3135      C3140   1.397   1_554  A
C3135      H3142   1.084       .  S
C3136      C3137   1.415       .  A
C3137      C3138   1.404   1_554  A
C3137      N3144   1.428       .  S
C3138      C3139   1.406       .  A
C3138      H3143   1.084       .  S
C3139      C3140   1.415       .  A
C3140      N3141   1.429       .  S
N3141      O3145   1.262       .  A
N3141      O3146   1.262       .  A
N3144      O3148   1.262       .  A
N3144      O3147   1.262       .  A
C3149      C3150   1.410       .  A
C3149      C3154   1.399       .  A
C3149      H3156   1.084       .  S
C3150      C3151   1.411       .  A
C3151      C3152   1.399       .  A
C3151      N3158   1.428       .  S
C3152      C3153   1.408       .  A
C3152      H3157   1.084       .  S
C3153      C3154   1.409       .  A
C3154      N3155   1.429       .  S
N3155      O3159   1.262       .  A
N3155      O3160   1.262       .  A
N3158      O3162   1.262       .  A
N3158      O3161   1.262       .  A
C3163      C3164   1.411       .  A
C3163      C3168   1.399       .  A
C3163      H3170   1.083       .  S
C3164      C3165   1.413       .  A
C3165      C3166   1.400       .  A
C3165      N3172   1.428       .  S
C3166      C3167   1.411       .  A
C3166      H3171   1.083       .  S
C3167      C3168   1.413       .  A
C3168      N3169   1.429       .  S
N3169      O3173   1.262       .  A
N3169      O3174   1.262       .  A
N3172      O3176   1.262       .  A
N3172      O3175   1.262       .  A
C3177      C3178   1.409       .  A
C3177      C3182   1.396       .  A
C3177      H3184   1.084       .  S
C3178      C3179   1.416       .  A
C3179      C3180   1.406       .  A
C3179      N3186   1.428       .  S
C3180      C3181   1.406       .  A
C3180      H3185   1.084       .  S
C3181      C3182   1.409       .  A
C3182      N3183   1.429       .  S
N3183      O3187   1.262       .  A
N3183      O3188   1.262       .  A
N3186      O3190   1.262       .  A
N3186      O3189   1.262       .  A
C3191      C3192   1.406       .  A
C3191      C3196   1.399       .  A
C3191      H3198   1.084       .  S
C3192      C3193   1.417       .  A
C3193      C3194   1.406       .  A
C3193      N3200   1.428       .  S
C3194      C3195   1.405       .  A
C3194      H3199   1.084       .  S
C3195      C3196   1.415       .  A
C3196      N3197   1.429       .  S
N3197      O3201   1.262       .  A
N3197      O3202   1.262       .  A
N3200      O3204   1.262       .  A
N3200      O3203   1.262       .  A
C3205      C3206   1.408       .  A
C3205      C3210   1.411       .  A
C3205      H3212   1.084       .  S
C3206      C3207   1.416       .  A
C3207      C3208   1.398       .  A
C3207      N3214   1.429       .  S
C3208      C3209   1.405       .  A
C3208      H3213   1.084       .  S
C3209      C3210   1.418       .  A
C3210      N3211   1.428       .  S
N3211      O3215   1.262       .  A
N3211      O3216   1.262       .  A
N3214      O3218   1.262       .  A
N3214      O3217   1.262       .  A
C3219      C3220   1.405       .  A
C3219      C3224   1.404       .  A
C3219      H3226   1.084       .  S
C3220      C3221   1.407       .  A
C3221      C3222   1.394       .  A
C3221      N3228   1.429       .  S
C3222      C3223   1.411       .  A
C3222      H3227   1.084       .  S
C3223      C3224   1.415       .  A
C3224      N3225   1.428       .  S
N3225      O3229   1.262       .  A
N3225      O3230   1.262       .  A
N3228      O3232   1.262       .  A
N3228      O3231   1.262       .  A
C3233      C3234   1.401       .  A
C3233      C3238   1.400       .  A
C3233      H3240   1.084       .  S
C3234      C3235   1.406       .  A
C3235      C3236   1.397       .  A
C3235      N3242   1.428       .  S
C3236      C3237   1.404       .  A
C3236      H3241   1.084       .  S
C3237      C3238   1.411       .  A
C3238      N3239   1.428       .  S
N3239      O3243   1.262       .  A
N3239      O3244   1.262       .  A
N3242      O3246   1.262       .  A
N3242      O3245   1.262       .  A
C3247      C3248   1.408       .  A
C3247      C3252   1.408       .  A
C3247      H3254   1.084       .  S
C3248      C3249   1.413       .  A
C3249      C3250   1.397       .  A
C3249      N3256   1.428       .  S
C3250      C3251   1.405       .  A
C3250      H3255   1.084       .  S
C3251      C3252   1.416       .  A
C3252      N3253   1.428       .  S
N3253      O3257   1.262       .  A
N3253      O3258   1.262       .  A
N3256      O3260   1.262       .  A
N3256      O3259   1.262       .  A
C3261      C3262   1.411       .  A
C3261      C3266   1.401       .  A
C3261      H3268   1.083       .  S
C3262      C3263   1.413       .  A
C3263      C3264   1.401       .  A
C3263      N3270   1.429       .  S
C3264      C3265   1.412       .  A
C3264      H3269   1.083       .  S
C3265      C3266   1.413       .  A
C3266      N3267   1.428       .  S
N3267      O3271   1.262       .  A
N3267      O3272   1.262       .  A
N3270      O3274   1.262       .  A
N3270      O3273   1.262       .  A
C3275      C3276   1.404       .  A
C3275      C3280   1.402       .  A
C3275      H3282   1.084       .  S
C3276      C3277   1.417       .  A
C3277      C3278   1.401       .  A
C3277      N3284   1.428       .  S
C3278      C3279   1.399       .  A
C3278      H3283   1.084       .  S
C3279      C3280   1.413       .  A
C3280      N3281   1.430       .  S
N3281      O3285   1.262       .  A
N3281      O3286   1.262       .  A
N3284      O3288   1.262       .  A
N3284      O3287   1.262       .  A
C3289      C3290   1.404       .  A
C3289      C3294   1.405       .  A
C3289      H3296   1.084       .  S
C3290      C3291   1.413       .  A
C3291      C3292   1.396       .  A
C3291      N3298   1.429       .  S
C3292      C3293   1.406       .  A
C3292      H3297   1.084       .  S
C3293      C3294   1.417       .  A
C3294      N3295   1.428       .  S
N3295      O3299   1.262       .  A
N3295      O3300   1.262       .  A
N3298      O3302   1.262       .  A
N3298      O3301   1.262       .  A
C3303      C3304   1.398       .  A
C3303      C3308   1.400       .  A
C3303      H3310   1.085       .  S
C3304      C3305   1.402       .  A
C3305      C3306   1.396       .  A
C3305      N3312   1.428       .  S
C3306      C3307   1.410       .  A
C3306      H3311   1.084       .  S
C3307      C3308   1.418       .  A
C3308      N3309   1.428       .  S
N3309      O3313   1.262       .  A
N3309      O3314   1.262       .  A
N3312      O3316   1.262       .  A
N3312      O3315   1.262       .  A
C3317      C3318   1.405       .  A
C3317      C3322   1.404   1_556  A
C3317      H3324   1.084       .  S
C3318      C3319   1.415       .  A
C3319      C3320   1.398   1_556  A
C3319      N3326   1.429       .  S
C3320      C3321   1.402       .  A
C3320      H3325   1.084       .  S
C3321      C3322   1.415       .  A
C3322      N3323   1.429       .  S
N3323      O3327   1.262       .  A
N3323      O3328   1.262       .  A
N3326      O3330   1.262       .  A
N3326      O3329   1.262       .  A
C3331      C3332   1.403       .  A
C3331      C3336   1.403       .  A
C3331      H3338   1.084       .  S
C3332      C3333   1.409       .  A
C3333      C3334   1.393       .  A
C3333      N3340   1.430       .  S
C3334      C3335   1.408       .  A
C3334      H3339   1.084       .  S
C3335      C3336   1.417       .  A
C3336      N3337   1.427       .  S
N3337      O3341   1.262       .  A
N3337      O3342   1.262       .  A
N3340      O3344   1.262       .  A
N3340      O3343   1.262       .  A
C3345      C3346   1.398       .  A
C3345      C3350   1.396       .  A
C3345      H3352   1.084       .  S
C3346      C3347   1.409       .  A
C3347      C3348   1.397       .  A
C3347      N3354   1.429       .  S
C3348      C3349   1.402       .  A
C3348      H3353   1.084       .  S
C3349      C3350   1.411       .  A
C3350      N3351   1.428       .  S
N3351      O3355   1.262       .  A
N3351      O3356   1.262       .  A
N3354      O3358   1.262       .  A
N3354      O3357   1.262       .  A
C3359      C3360   1.405       .  A
C3359      C3364   1.407       .  A
C3359      H3366   1.084       .  S
C3360      C3361   1.415       .  A
C3361      C3362   1.399       .  A
C3361      N3368   1.429       .  S
C3362      C3363   1.406       .  A
C3362      H3367   1.084       .  S
C3363      C3364   1.418       .  A
C3364      N3365   1.427       .  S
N3365      O3369   1.262       .  A
N3365      O3370   1.262       .  A
N3368      O3372   1.262       .  A
N3368      O3371   1.262       .  A
C3373      C3374   1.405       .  A
C3373      C3378   1.399   1_556  A
C3373      H3380   1.084       .  S
C3374      C3375   1.416       .  A
C3375      C3376   1.406   1_556  A
C3375      N3382   1.428       .  S
C3376      C3377   1.407       .  A
C3376      H3381   1.084       .  S
C3377      C3378   1.415       .  A
C3378      N3379   1.429       .  S
N3379      O3383   1.262       .  A
N3379      O3384   1.262       .  A
N3382      O3386   1.262       .  A
N3382      O3385   1.262       .  A
C3387      C3388   1.405       .  A
C3387      C3392   1.403       .  A
C3387      H3394   1.084       .  S
C3388      C3389   1.419       .  A
C3389      C3390   1.399       .  A
C3389      N3396   1.428       .  S
C3390      C3391   1.399       .  A
C3390      H3395   1.084       .  S
C3391      C3392   1.416       .  A
C3392      N3393   1.430       .  S
N3393      O3397   1.262       .  A
N3393      O3398   1.262       .  A
N3396      O3400   1.262       .  A
N3396      O3399   1.262       .  A
C3401      C3402   1.412       .  A
C3401      C3406   1.399       .  A
C3401      H3408   1.083       .  S
C3402      C3403   1.411       .  A
C3403      C3404   1.400       .  A
C3403      N3410   1.429       .  S
C3404      C3405   1.412       .  A
C3404      H3409   1.083       .  S
C3405      C3406   1.411       .  A
C3406      N3407   1.429       .  S
N3407      O3411   1.262       .  A
N3407      O3412   1.262       .  A
N3410      O3414   1.262       .  A
N3410      O3413   1.262       .  A
C3415      C3416   1.397       .  A
C3415      C3420   1.399       .  A
C3415      H3422   1.084       .  S
C3416      C3417   1.417       .  A
C3417      C3418   1.397       .  A
C3417      N3424   1.429       .  S
C3418      C3419   1.394       .  A
C3418      H3423   1.084       .  S
C3419      C3420   1.414       .  A
C3420      N3421   1.428       .  S
N3421      O3425   1.262       .  A
N3421      O3426   1.262       .  A
N3424      O3428   1.262       .  A
N3424      O3427   1.262       .  A
C3429      C3430   1.399       .  A
C3429      C3434   1.401       .  A
C3429      H3436   1.084       .  S
C3430      C3431   1.407       .  A
C3431      C3432   1.397       .  A
C3431      N3438   1.428       .  S
C3432      C3433   1.404       .  A
C3432      H3437   1.084       .  S
C3433      C3434   1.417       .  A
C3434      N3435   1.429       .  S
N3435      O3439   1.262       .  A
N3435      O3440   1.262       .  A
N3438      O3442   1.262       .  A
N3438      O3441   1.262       .  A
C3443      C3444   1.405       .  A
C3443      C3448   1.406       .  A
C3443      H3450   1.084       .  S
C3444      C3445   1.412       .  A
C3445      C3446   1.399       .  A
C3445      N3452   1.429       .  S
C3446      C3447   1.408       .  A
C3446      H3451   1.084       .  S
C3447      C3448   1.418       .  A
C3448      N3449   1.428       .  S
N3449      O3453   1.262       .  A
N3449      O3454   1.262       .  A
N3452      O3456   1.262       .  A
N3452      O3455   1.262       .  A
