geometry optimzed in LAMMPS
_audit_creation_date              2020-12-01 
_audit_creation_method            'lammps2cif' 
_symmetry_space_group_name_H-M    'P1' 
_symmetry_Int_Tables_number       1 
_symmetry_cell_setting            triclinic 
loop_ 
_symmetry_equiv_pos_as_xyz 
  x,y,z 
_cell_length_a                    50.4097928 
_cell_length_b                    38.533291512700586 
_cell_length_c                    62.65969187876347 
_cell_angle_alpha                 89.74216792062097 
_cell_angle_beta                  89.92543624179594 
_cell_angle_gamma                 90.02254365913299 
loop_ 
_atom_site_label 
_atom_site_type_symbol 
_atom_site_fract_x 
_atom_site_fract_y 
_atom_site_fract_z 
_atom_site_charge 
Fe1        Fe  0.90869417  0.22603929  0.98486522     1.65800
Fe2        Fe  0.87982994  0.18935713  0.02723435     1.73200
Fe3        Fe  0.92975691  0.14746910  0.00215090     1.54400
O4          O  0.92578612  0.14565169  0.96846784    -0.82100
O5          O  0.90901490  0.18658580  0.04960983    -0.80400
O6          O  0.90312759  0.19351335  0.95984172    -0.84600
O7          O  0.94959287  0.22408598  0.98192186    -0.79400
O8          O  0.89792190  0.11291908  0.00317186    -0.81200
O9          O  0.88036929  0.24347919  0.02952571    -0.83900
C10         C  0.96817084  0.20708941  0.99077678     0.96800
C11         C  0.91180142  0.16356625  0.95539846     1.04300
O12         O  0.90640470  0.18744559  0.00473839    -1.12900
O13         O  0.85024779  0.19196545  0.00500275    -0.75400
O14         O  0.86784021  0.23359778  0.98469843    -0.78800
O15         O  0.96380152  0.17879109  0.00079342    -0.79500
C16         C  0.84817001  0.21526116  0.99073906     0.95700
O17         O  0.91389154  0.26077672  0.00919072    -0.77500
O18         O  0.87372973  0.13592745  0.02905399    -0.82700
C19         C  0.92724483  0.16401491  0.05129051     0.98300
C20         C  0.87888588  0.11112904  0.01645138     1.04300
O21         O  0.93486316  0.14500703  0.03567377    -0.78300
C22         C  0.89646006  0.26678064  0.02323225     1.02600
Fe23       Fe  0.87540921  0.21607927  0.77518541     1.65800
Fe24       Fe  0.90377858  0.18432008  0.73108195     1.73200
Fe25       Fe  0.85337811  0.14050568  0.75461243     1.54400
O26         O  0.85505720  0.13653578  0.78835201    -0.82100
O27         O  0.87484351  0.18223741  0.70824966    -0.80400
O28         O  0.88047316  0.18062553  0.79907715    -0.84600
O29         O  0.83452548  0.21381665  0.77794941    -0.79400
O30         O  0.88497650  0.10566769  0.75357855    -0.81200
O31         O  0.90208140  0.23844730  0.72974943    -0.83900
C32         C  0.81604206  0.19976542  0.76727342     0.96800
C33         C  0.86881703  0.15207665  0.80255325     1.04300
O34         O  0.87740406  0.18013264  0.75364415    -1.12900
O35         O  0.93403373  0.18634297  0.75291439    -0.75400
O36         O  0.91610827  0.22370124  0.77569468    -0.78800
O37         O  0.82015917  0.17319499  0.75565397    -0.79500
C38         C  0.93604168  0.20755974  0.76823513     0.95700
O39         O  0.87040588  0.25397673  0.75244831    -0.77500
O40         O  0.91016381  0.13121005  0.72894118    -0.82700
C41         C  0.85749879  0.15876204  0.70564705     0.98300
C42         C  0.90450979  0.10524475  0.74067610     1.04300
O43         O  0.84960683  0.13915236  0.72095606    -0.78300
C44         C  0.88637651  0.26101488  0.73742030     1.02600
Fe45       Fe  0.60999946  0.30849956  0.98967983     1.65800
Fe46       Fe  0.65502943  0.34327801  0.02171949     1.73200
Fe47       Fe  0.60298150  0.39163074  0.00571037     1.54400
O48         O  0.59330931  0.38705512  0.97292844    -0.82100
O49         O  0.63575238  0.35535448  0.04904440    -0.80400
O50         O  0.61055374  0.33650881  0.96234465    -0.84600
O51         O  0.57046278  0.31971549  0.99405023    -0.79400
O52         O  0.63668046  0.41977530  0.99667917    -0.81200
O53         O  0.64902610  0.29032786  0.02831654    -0.83900
C54         C  0.55734906  0.33986971  0.00597900     0.96800
C55         C  0.59971066  0.36542752  0.95830036     1.04300
O56         O  0.62246180  0.34812950  0.00573580    -1.12900
O57         O  0.67526262  0.33174287  0.99442653    -0.75400
O58         O  0.64800895  0.29084414  0.98256783    -0.78800
O59         O  0.56765164  0.36653400  0.01467484    -0.79500
C60         C  0.67076713  0.30496467  0.98338636     0.95700
O61         O  0.60858839  0.27859912  0.01661303    -0.77500
O62         O  0.66654656  0.39488473  0.01789555    -0.82700
C63         C  0.62440920  0.38405438  0.05270129     0.98300
C64         C  0.65922888  0.41967327  0.00583338     1.04300
O65         O  0.61189587  0.40116017  0.03829349    -0.78300
C66         C  0.62912885  0.27003209  0.02692497     1.02600
Fe67       Fe  0.66770939  0.30283015  0.26600858     1.65800
Fe68       Fe  0.62466004  0.34296928  0.23403444     1.73200
Fe69       Fe  0.67758134  0.38740836  0.25256474     1.54400
O70         O  0.68476757  0.38081300  0.28550686    -0.82100
O71         O  0.64527795  0.35645148  0.20733406    -0.80400
O72         O  0.66846488  0.32869857  0.29410350    -0.84600
O73         O  0.70770535  0.31072598  0.26112185    -0.79400
O74         O  0.64442832  0.41727156  0.26078784    -0.81200
O75         O  0.62851116  0.29038346  0.22625036    -0.83900
C76         C  0.72157369  0.33208931  0.25047954     0.96800
C77         C  0.67763973  0.35804924  0.29931661     1.04300
O78         O  0.65690139  0.34467348  0.25086527    -1.12900
O79         O  0.60300827  0.33036998  0.26059304    -0.75400
O80         O  0.62887097  0.28810434  0.27303220    -0.78800
O81         O  0.71265780  0.36138173  0.24424442    -0.79500
C82         C  0.60652526  0.30332205  0.27181000     0.95700
O83         O  0.66774376  0.27432206  0.23860422    -0.77500
O84         O  0.61476212  0.39457282  0.23870845    -0.82700
C85         C  0.65884182  0.38392114  0.20477435     0.98300
C86         C  0.62235325  0.41870613  0.25097083     1.04300
O87         O  0.67115230  0.39903023  0.21999028    -0.78300
C88         C  0.64722410  0.26835376  0.22766251     1.02600
Fe89       Fe  0.36758374  0.22076131  0.26734261     1.65800
Fe90       Fe  0.39853469  0.18859157  0.22447610     1.73200
Fe91       Fe  0.34882488  0.14310684  0.24741396     1.54400
O92         O  0.34973850  0.14047165  0.28119007    -0.82100
O93         O  0.37063495  0.18401384  0.20100423    -0.80400
O94         O  0.37370173  0.18617247  0.29152012    -0.84600
O95         O  0.32657721  0.21579659  0.26964388    -0.79400
O96         O  0.38142047  0.11001906  0.24774052    -0.81200
O97         O  0.39498001  0.24272397  0.22240972    -0.83900
C98         C  0.30923010  0.20034334  0.25846676     0.96800
C99         C  0.36346723  0.15672404  0.29510136     1.04300
O100        O  0.37146054  0.18405837  0.24635742    -1.12900
O101        O  0.42748790  0.19297310  0.24712606    -0.75400
O102        O  0.40808205  0.23132106  0.26846460    -0.78800
O103        O  0.31482407  0.17397053  0.24713952    -0.79500
C104        C  0.42852109  0.21509789  0.26199689     0.95700
O105        O  0.36186625  0.25756796  0.24396626    -0.77500
O106        O  0.40708293  0.13557581  0.22346812    -0.82700
C107        C  0.35365009  0.16008819  0.19843837     0.98300
C108        C  0.40173539  0.11000687  0.23567322     1.04300
O109        O  0.34599006  0.14032192  0.21373527    -0.78300
C110        C  0.37858562  0.26504047  0.22953274     1.02600
Fe111      Fe  0.40473733  0.21075904  0.47412441     1.65800
Fe112      Fe  0.37711614  0.17692418  0.51793799     1.73200
Fe113      Fe  0.42813807  0.13532178  0.49380361     1.54400
O114        O  0.42515138  0.13201519  0.46001877    -0.82100
O115        O  0.40623966  0.17458905  0.54063887    -0.80400
O116        O  0.39842496  0.17569086  0.45060127    -0.84600
O117        O  0.44544596  0.20887914  0.47019509    -0.79400
O118        O  0.39716477  0.09958268  0.49508689    -0.81200
O119        O  0.37865134  0.23121563  0.51956380    -0.83900
C120        C  0.46412121  0.19643730  0.48141981     0.96800
C121        C  0.40955704  0.14699322  0.44673167     1.04300
O122        O  0.40346728  0.17409546  0.49535714    -1.12900
O123        O  0.34671711  0.17903462  0.49608450    -0.75400
O124        O  0.36415035  0.21873646  0.47446212    -0.78800
O125        O  0.46076837  0.16919911  0.49273305    -0.79500
C126        C  0.34445357  0.20134105  0.48126237     0.95700
O127        O  0.41060257  0.24745656  0.49712285    -0.77500
O128        O  0.37115648  0.12351863  0.51968072    -0.82700
C129        C  0.42466160  0.15238852  0.54278536     0.98300
C130        C  0.37732806  0.09825643  0.50766851     1.04300
O131        O  0.43283024  0.13352558  0.52733054    -0.78300
C132        C  0.39466347  0.25390982  0.51222239     1.02600
Fe133      Fe  0.17278522  0.30895347  0.77191773     1.65800
Fe134      Fe  0.12540279  0.34492354  0.74205630     1.73200
Fe135      Fe  0.18062797  0.39136410  0.75398387     1.54400
O136        O  0.19126258  0.38797095  0.78683092    -0.82100
O137        O  0.14066541  0.35883806  0.71321865    -0.80400
O138        O  0.17423906  0.33786178  0.79894438    -0.84600
O139        O  0.21229412  0.31865657  0.76639478    -0.79400
O140        O  0.14868219  0.42311865  0.76281131    -0.81200
O141        O  0.13121010  0.29234311  0.73430835    -0.83900
C142        C  0.22462061  0.33671357  0.75275210     0.96800
C143        C  0.18533816  0.36699180  0.80212526     1.04300
O144        O  0.15971157  0.34888490  0.75583789    -1.12900
O145        O  0.10774354  0.33220736  0.77043568    -0.75400
O146        O  0.13543061  0.29068791  0.78034377    -0.78800
O147        O  0.21443732  0.36363515  0.74422364    -0.79500
C148        C  0.11251065  0.30413381  0.78014984     0.95700
O149        O  0.17198039  0.27883938  0.74510551    -0.77500
O150        O  0.11470280  0.39596884  0.74741628    -0.82700
C151        C  0.15580671  0.38383228  0.70810066     0.98300
C152        C  0.12466712  0.42228609  0.75647918     1.04300
O153        O  0.17112948  0.39909168  0.72139570    -0.78300
C154        C  0.15100172  0.27165941  0.73487970     1.02600
Fe155      Fe  0.11085736  0.30188421  0.48736770     1.65800
Fe156      Fe  0.16011304  0.33618395  0.51615522     1.73200
Fe157      Fe  0.10436863  0.38376536  0.50688126     1.54400
O158        O  0.09335943  0.38354134  0.47439860    -0.82100
O159        O  0.14613913  0.34830314  0.54575778    -0.80400
O160        O  0.10651797  0.33238796  0.46104973    -0.84600
O161        O  0.07200541  0.31024614  0.49531716    -0.79400
O162        O  0.13637161  0.41585460  0.49839664    -0.81200
O163        O  0.15514696  0.28356785  0.52305130    -0.83900
C164        C  0.05916575  0.33016835  0.50746915     0.96800
C165        C  0.09715670  0.36276998  0.45877300     1.04300
O166        O  0.12490842  0.34098776  0.50361729    -1.12900
O167        O  0.17655519  0.32502054  0.48697552    -0.75400
O168        O  0.14752798  0.28558187  0.47628845    -0.78800
O169        O  0.06954267  0.35705914  0.51578025    -0.79500
C170        C  0.17057175  0.29871632  0.47596099     0.95700
O171        O  0.11417278  0.26960838  0.51323385    -0.77500
O172        O  0.17089674  0.38716612  0.51170273    -0.82700
C173        C  0.13070184  0.37231254  0.55195011     0.98300
C174        C  0.16069122  0.41426990  0.50376181     1.04300
O175        O  0.11453394  0.38806740  0.53946178    -0.78300
C176        C  0.13569248  0.26252172  0.52273068     1.02600
Fe177      Fe  0.66690150  0.80570977  0.77217060     1.65800
Fe178      Fe  0.62394943  0.83957164  0.73748432     1.73200
Fe179      Fe  0.67725208  0.88640376  0.75278463     1.54400
O180        O  0.68549932  0.88434192  0.78605313    -0.82100
O181        O  0.64413689  0.84922109  0.71006128    -0.80400
O182        O  0.66566338  0.83635153  0.79837099    -0.84600
O183        O  0.70715783  0.81480007  0.76886172    -0.79400
O184        O  0.64441896  0.91762919  0.75957947    -0.81200
O185        O  0.62979188  0.78638605  0.73216795    -0.83900
C186        C  0.72086148  0.83186599  0.75549117     0.96800
C187        C  0.67785254  0.86467214  0.80148013     1.04300
O188        O  0.65606795  0.84430724  0.75416576    -1.12900
O189        O  0.60215430  0.82984819  0.76443420    -0.75400
O190        O  0.62815256  0.78946601  0.77863005    -0.78800
O191        O  0.71154895  0.85800751  0.74551058    -0.79500
C192        C  0.60557939  0.80374583  0.77644660     0.95700
O193        O  0.66904667  0.77382848  0.74632450    -0.77500
O194        O  0.61339481  0.89167333  0.73998453    -0.82700
C195        C  0.65954265  0.87408288  0.70540421     0.98300
C196        C  0.62164968  0.91736963  0.75076615     1.04300
O197        O  0.67100875  0.89277079  0.71950630    -0.78300
C198        C  0.64960323  0.76614452  0.73449603     1.02600
Fe199      Fe  0.61282760  0.80520791  0.47908533     1.65800
Fe200      Fe  0.66156435  0.83595345  0.50930568     1.73200
Fe201      Fe  0.60511795  0.88256980  0.50388252     1.54400
O202        O  0.59266058  0.88621189  0.47158482    -0.82100
O203        O  0.64764517  0.84161204  0.53946187    -0.80400
O204        O  0.60911953  0.83950365  0.45473752    -0.84600
O205        O  0.57357412  0.81250950  0.48684171    -0.79400
O206        O  0.63591187  0.91694300  0.49611316    -0.81200
O207        O  0.65708083  0.78221837  0.51304229    -0.83900
C208        C  0.56154120  0.82747000  0.50192139     0.96800
C209        C  0.59774224  0.86887027  0.45459984     1.04300
O210        O  0.62636245  0.84171857  0.49753708    -1.12900
O211        O  0.67739839  0.83081321  0.47938910    -0.75400
O212        O  0.64999243  0.79032554  0.46775417    -0.78800
O213        O  0.57210360  0.85204052  0.51246824    -0.79500
C214        C  0.67257035  0.80487650  0.46777456     0.95700
O215        O  0.61567654  0.77003616  0.50338334    -0.77500
O216        O  0.67120864  0.88806166  0.50792810    -0.82700
C217        C  0.63225555  0.86381775  0.54776020     0.98300
C218        C  0.66036315  0.91565697  0.50112726     1.04300
O219        O  0.61657238  0.88275570  0.53655599    -0.78300
C220        C  0.63714556  0.76183971  0.51260263     1.02600
Fe221      Fe  0.41190123  0.71979357  0.97587488     1.65800
Fe222      Fe  0.38189930  0.69237828  0.02031322     1.73200
Fe223      Fe  0.43090781  0.64460949  0.99869305     1.54400
O224        O  0.42957656  0.63905328  0.96500853    -0.82100
O225        O  0.40999361  0.68961833  0.04387789    -0.80400
O226        O  0.40391221  0.68266498  0.95390450    -0.84600
O227        O  0.45233431  0.71282861  0.97278821    -0.79400
O228        O  0.39778800  0.61214946  0.99960156    -0.81200
O229        O  0.38607287  0.74627959  0.01982854    -0.83900
C230        C  0.46983151  0.70162789  0.98563371     0.96800
C231        C  0.41402147  0.65295791  0.95129264     1.04300
O232        O  0.40848688  0.68558337  0.99847944    -1.12900
O233        O  0.35274174  0.69461614  0.99755338    -0.75400
O234        O  0.37189837  0.73175680  0.97515643    -0.78800
O235        O  0.46508115  0.67602278  0.99804681    -0.79500
C236        C  0.35164599  0.71546491  0.98187498     0.95700
O237        O  0.41901231  0.75873028  0.99737913    -0.77500
O238        O  0.37332964  0.63981446  0.02373070    -0.82700
C239        C  0.42599603  0.66474881  0.04723569     0.98300
C240        C  0.37790803  0.61347903  0.01214546     1.04300
O241        O  0.43348387  0.64422971  0.03237037    -0.78300
C242        C  0.40256776  0.76763369  0.01168385     1.02600
Fe243      Fe  0.36683446  0.71437988  0.77608729     1.65800
Fe244      Fe  0.40069605  0.68338428  0.73430546     1.73200
Fe245      Fe  0.34963275  0.63703588  0.75446609     1.54400
O246        O  0.34905902  0.63264560  0.78811238    -0.82100
O247        O  0.37447994  0.67953499  0.70951600    -0.80400
O248        O  0.37116439  0.67894648  0.80006758    -0.84600
O249        O  0.32574353  0.70973809  0.77640901    -0.79400
O250        O  0.38237325  0.60354888  0.75521732    -0.81200
O251        O  0.39734882  0.73729843  0.73278828    -0.83900
C252        C  0.30914498  0.69461317  0.76437765     0.96800
C253        C  0.36168339  0.64880177  0.80270417     1.04300
O254        O  0.37217152  0.67815472  0.75490104    -1.12900
O255        O  0.42807872  0.68695966  0.75833134    -0.75400
O256        O  0.40723410  0.72484890  0.77911882    -0.78800
O257        O  0.31537680  0.66801228  0.75342245    -0.79500
C258        C  0.42817925  0.70917808  0.77318264     0.95700
O259        O  0.36289170  0.75206770  0.75294329    -0.77500
O260        O  0.40933207  0.63078250  0.73264931    -0.82700
C261        C  0.35735654  0.65605272  0.70601476     0.98300
C262        C  0.40332291  0.60434641  0.74382842     1.04300
O263        O  0.34852690  0.63611437  0.72080132    -0.78300
C264        C  0.38056791  0.75955732  0.73926664     1.02600
Fe265      Fe  0.11619698  0.80298398  0.98006419     1.65800
Fe266      Fe  0.16294680  0.84104895  0.00974013     1.73200
Fe267      Fe  0.10631340  0.88545308  0.99745204     1.54400
O268        O  0.09758403  0.88243756  0.96450780    -0.82100
O269        O  0.14747672  0.85656650  0.03819835    -0.80400
O270        O  0.11376971  0.83158498  0.95294086    -0.84600
O271        O  0.07661859  0.81042821  0.98547324    -0.79400
O272        O  0.13781386  0.91932331  0.98994295    -0.81200
O273        O  0.15726859  0.78915090  0.01947668    -0.83900
C274        C  0.06292898  0.82927588  0.99762509     0.96800
C275        C  0.10323683  0.86101702  0.94954620     1.04300
O276        O  0.12841153  0.84365141  0.99585225    -1.12900
O277        O  0.18129445  0.82686234  0.98201944    -0.75400
O278        O  0.15354299  0.78628947  0.97106478    -0.78800
O279        O  0.07217046  0.85687873  0.00586271    -0.79500
C280        C  0.17618089  0.80041528  0.97097704     0.95700
O281        O  0.11768185  0.77327341  0.00705724    -0.77500
O282        O  0.17350615  0.89127277  0.00189337    -0.82700
C283        C  0.12931224  0.87760645  0.04343035     0.98300
C284        C  0.16265611  0.91785713  0.99370073     1.04300
O285        O  0.11339849  0.89168508  0.03014474    -0.78300
C286        C  0.13770201  0.76808499  0.01885257     1.02600
Fe287      Fe  0.16983552  0.80290156  0.26714569     1.65800
Fe288      Fe  0.11866608  0.83568229  0.24022241     1.73200
Fe289      Fe  0.17459009  0.88457116  0.24562006     1.54400
O290        O  0.18396165  0.88706355  0.27844960    -0.82100
O291        O  0.13046041  0.84833722  0.21021439    -0.80400
O292        O  0.17388514  0.83478723  0.29262983    -0.84600
O293        O  0.20849236  0.81158249  0.25858707    -0.79400
O294        O  0.14259475  0.91794401  0.25186843    -0.81200
O295        O  0.12483748  0.78349236  0.23259017    -0.83900
C296        C  0.22074745  0.83160119  0.24604995     0.96800
C297        C  0.18078094  0.86641832  0.29442465     1.04300
O298        O  0.15460499  0.84151914  0.25079356    -1.12900
O299        O  0.10448665  0.82401751  0.26992191    -0.75400
O300        O  0.13387561  0.78434946  0.27912531    -0.78800
O301        O  0.21003815  0.85857720  0.23812663    -0.79500
C302        C  0.11079358  0.79717136  0.28026740     0.95700
O303        O  0.16643492  0.77063116  0.24155814    -0.77500
O304        O  0.10686678  0.88567960  0.24620290    -0.82700
C305        C  0.14792266  0.86783390  0.20182380     0.98300
C306        C  0.11755107  0.91433330  0.25089708     1.04300
O307        O  0.16535423  0.88412449  0.21279498    -0.78300
C308        C  0.14493783  0.76343035  0.23208276     1.02600
Fe309      Fe  0.87331324  0.72342160  0.27508452     1.65800
Fe310      Fe  0.90218286  0.68974942  0.23184010     1.73200
Fe311      Fe  0.85115811  0.64739362  0.25542247     1.54400
O312        O  0.85232979  0.64424611  0.28920475    -0.82100
O313        O  0.87366958  0.68729913  0.20861256    -0.80400
O314        O  0.87824224  0.68831225  0.29893487    -0.84600
O315        O  0.83237326  0.72153224  0.27735401    -0.79400
O316        O  0.88290511  0.61280423  0.25572082    -0.81200
O317        O  0.90104729  0.74420930  0.23006702    -0.83900
C318        C  0.81400878  0.70765403  0.26644559     0.96800
C319        C  0.86740829  0.65932326  0.30269043     1.04300
O320        O  0.87528344  0.68684886  0.25401030    -1.12900
O321        O  0.93168654  0.69156254  0.25427999    -0.75400
O322        O  0.91421421  0.73069168  0.27613057    -0.78800
O323        O  0.81804358  0.68038516  0.25542238    -0.79500
C324        C  0.93380359  0.71287573  0.26953408     0.95700
O325        O  0.86875612  0.76062342  0.25199433    -0.77500
O326        O  0.90828308  0.63619549  0.23041986    -0.82700
C327        C  0.85619177  0.66387971  0.20623339     0.98300
C328        C  0.90281285  0.61152353  0.24325146     1.04300
O329        O  0.84808901  0.64483153  0.22174811    -0.78300
C330        C  0.88538580  0.76721880  0.23739697     1.02600
Fe331      Fe  0.90872369  0.71944717  0.47862185     1.65800
Fe332      Fe  0.87354223  0.69046517  0.52069259     1.73200
Fe333      Fe  0.92499044  0.64273792  0.50209869     1.54400
O334        O  0.92517255  0.63633368  0.46865098    -0.82100
O335        O  0.89908879  0.68652380  0.54604557    -0.80400
O336        O  0.90511656  0.68334977  0.45520885    -0.84600
O337        O  0.94969051  0.71491902  0.47908039    -0.79400
O338        O  0.89254158  0.60913795  0.50248391    -0.81200
O339        O  0.87787339  0.74453607  0.52170604    -0.83900
C340        C  0.96608694  0.69919595  0.49102032     0.96800
C341        C  0.91374971  0.65267711  0.45343124     1.04300
O342        O  0.90257372  0.68405832  0.50052862    -1.12900
O343        O  0.84667226  0.69428270  0.49622361    -0.75400
O344        O  0.86864106  0.72981325  0.47442441    -0.78800
O345        O  0.95952085  0.67292503  0.50222031    -0.79500
C346        C  0.84740789  0.71480599  0.48035783     0.95700
O347        O  0.91219512  0.75794974  0.50095570    -0.77500
O348        O  0.86390410  0.63784613  0.52276952    -0.82700
C349        C  0.91698818  0.66417542  0.54995059     0.98300
C350        C  0.87102324  0.61043293  0.51308037     1.04300
O351        O  0.92636564  0.64404186  0.53563262    -0.78300
C352        C  0.89495468  0.76621471  0.51476191     1.02600
Fe353      Fe  0.86467705  0.07011083  0.47756545     1.65800
Fe354      Fe  0.89694075  0.09832923  0.52071359     1.73200
Fe355      Fe  0.84734836  0.14628070  0.50036898     1.54400
O356        O  0.84782630  0.15251404  0.46661567    -0.82100
O357        O  0.86958776  0.09970990  0.54480058    -0.80400
O358        O  0.87033316  0.10668571  0.45457086    -0.84600
O359        O  0.82368311  0.07540376  0.47639231    -0.79400
O360        O  0.88033994  0.17876813  0.50062862    -0.81200
O361        O  0.89405585  0.04417565  0.52031647    -0.83900
C362        C  0.80714703  0.08960202  0.48890672     0.96800
C363        C  0.86133890  0.13708845  0.45216241     1.04300
O364        O  0.86937181  0.10496368  0.49959937    -1.12900
O365        O  0.92486919  0.09729156  0.49713187    -0.75400
O366        O  0.90515378  0.05979571  0.47536904    -0.78800
O367        O  0.81317207  0.11560099  0.50041288    -0.79500
C368        C  0.92566219  0.07584726  0.48187910     0.95700
O369        O  0.85956664  0.03124170  0.49979724    -0.77500
O370        O  0.90520005  0.15104256  0.52440961    -0.82700
C371        C  0.85336614  0.12407817  0.54867327     0.98300
C372        C  0.90035930  0.17757931  0.51294062     1.04300
O373        O  0.84561905  0.14548272  0.53422881    -0.78300
C374        C  0.87719571  0.02255915  0.51318838     1.02600
Fe375      Fe  0.90849834  0.07078771  0.27710354     1.65800
Fe376      Fe  0.88216536  0.09954995  0.23146391     1.73200
Fe377      Fe  0.93095704  0.14522779  0.25515140     1.54400
O378        O  0.92860038  0.15041229  0.28882304    -0.82100
O379        O  0.91212066  0.10104771  0.20951926    -0.80400
O380        O  0.90145511  0.10798865  0.29941589    -0.84600
O381        O  0.94927554  0.07452389  0.28071661    -0.79400
O382        O  0.89884979  0.17923141  0.25324356    -0.81200
O383        O  0.88467806  0.04532654  0.23155510    -0.83900
C384        C  0.96758542  0.08570083  0.26850298     0.96800
C385        C  0.91291601  0.13670640  0.30254684     1.04300
O386        O  0.90728017  0.10528684  0.25454810    -1.12900
O387        O  0.85105217  0.09817906  0.25241115    -0.75400
O388        O  0.86784779  0.06216097  0.27668238    -0.78800
O389        O  0.96405192  0.11217901  0.25653948    -0.79500
C390        C  0.84830393  0.07784289  0.26819285     0.95700
O391        O  0.91501633  0.03132127  0.25581250    -0.77500
O392        O  0.87529191  0.15259936  0.22815454    -0.82700
C393        C  0.92849705  0.12560935  0.20666273     0.98300
C394        C  0.87964279  0.17872436  0.24001802     1.04300
O395        O  0.93524738  0.14617440  0.22166720    -0.78300
C396        C  0.89997605  0.02327626  0.24041670     1.02600
Fe397      Fe  0.11212161  0.97737862  0.76492236     1.65800
Fe398      Fe  0.15883803  0.94326942  0.73401233     1.73200
Fe399      Fe  0.10459548  0.89568550  0.74601351     1.54400
O400        O  0.09346687  0.89754936  0.77859242    -0.82100
O401        O  0.14171533  0.93381930  0.70540412    -0.80400
O402        O  0.11008943  0.94718254  0.79130640    -0.84600
O403        O  0.07268119  0.96809461  0.75853848    -0.79400
O404        O  0.13691995  0.86506598  0.75513646    -0.81200
O405        O  0.15420750  0.99706309  0.72852026    -0.83900
C406        C  0.05992180  0.94888470  0.74581791     0.96800
C407        C  0.09918370  0.91788452  0.79407187     1.04300
O408        O  0.12492761  0.93846595  0.74821193    -1.12900
O409        O  0.17701400  0.95199790  0.76256950    -0.75400
O410        O  0.14994707  0.99319144  0.77425251    -0.78800
O411        O  0.07028142  0.92253016  0.73687274    -0.79500
C412        C  0.17242833  0.97826754  0.77402066     0.95700
O413        O  0.11328705  0.00949048  0.73894317    -0.77500
O414        O  0.16929162  0.89092469  0.73693520    -0.82700
C415        C  0.12878261  0.90700601  0.70005164     0.98300
C416        C  0.16028605  0.86515174  0.74742261     1.04300
O417        O  0.11478686  0.88933354  0.71333040    -0.78300
C418        C  0.13456998  0.01792537  0.72954430     1.02600
Fe419      Fe  0.16480807  0.97782519  0.48344548     1.65800
Fe420      Fe  0.12276849  0.93960529  0.51702126     1.73200
Fe421      Fe  0.17422014  0.89409816  0.49730558     1.54400
O422        O  0.18052632  0.90159385  0.46416423    -0.82100
O423        O  0.14373971  0.92515247  0.54312588    -0.80400
O424        O  0.16130448  0.95203465  0.45548538    -0.84600
O425        O  0.20493320  0.96685446  0.48453042    -0.79400
O426        O  0.14072846  0.86461525  0.48984883    -0.81200
O427        O  0.12953140  0.99170958  0.52495838    -0.83900
C428        C  0.21882623  0.94724794  0.49631992     0.96800
C429        C  0.17191783  0.92347539  0.45029406     1.04300
O430        O  0.15398791  0.93672974  0.49922808    -1.12900
O431        O  0.10033325  0.95356413  0.49127650    -0.75400
O432        O  0.12618959  0.99619569  0.47955109    -0.78800
O433        O  0.20931613  0.92015976  0.50515660    -0.79500
C434        C  0.10365190  0.98160014  0.48104464     0.95700
O435        O  0.16893204  0.00469246  0.51119914    -0.77500
O436        O  0.11154997  0.88830977  0.51213311    -0.82700
C437        C  0.15724107  0.89771424  0.54547882     0.98300
C438        C  0.11886744  0.86366055  0.50005799     1.04300
O439        O  0.16874051  0.88216933  0.53000649    -0.78300
C440        C  0.14959201  0.01173595  0.52331441     1.02600
Fe441      Fe  0.67306256  0.97981109  0.98512387     1.65800
Fe442      Fe  0.62353188  0.94437146  0.01249002     1.73200
Fe443      Fe  0.68004293  0.89790694  0.00523831     1.54400
O444        O  0.69193149  0.89911443  0.97267632    -0.82100
O445        O  0.63606776  0.93238262  0.04226912    -0.80400
O446        O  0.67734770  0.94967219  0.95891573    -0.84600
O447        O  0.71204507  0.97098786  0.99281086    -0.79400
O448        O  0.64896995  0.86446367  0.99652586    -0.81200
O449        O  0.62811521  0.99710638  0.01972445    -0.83900
C450        C  0.72459534  0.95212051  0.00588017     0.96800
C451        C  0.68760362  0.91974793  0.95685839     1.04300
O452        O  0.65913638  0.94019818  0.00116738    -1.12900
O453        O  0.60882455  0.95475523  0.98293527    -0.75400
O454        O  0.63617151  0.99711507  0.97414685    -0.78800
O455        O  0.71396678  0.92581774  0.01484490    -0.79500
C456        C  0.61364339  0.98255303  0.97304015     0.95700
O457        O  0.66967033  0.01095658  0.01131039    -0.77500
O458        O  0.61325607  0.89359075  0.00707570    -0.82700
C459        C  0.65121025  0.90867263  0.04926883     0.98300
C460        C  0.62408217  0.86644607  0.99984828     1.04300
O461        O  0.66847806  0.89319660  0.03764544    -0.78300
C462        C  0.64779465  0.01788887  0.02032185     1.02600
Fe463      Fe  0.60885757  0.98127249  0.26703429     1.65800
Fe464      Fe  0.65521007  0.94465796  0.23670074     1.73200
Fe465      Fe  0.60111595  0.89787209  0.25146800     1.54400
O466        O  0.59260777  0.90287072  0.28452382    -0.82100
O467        O  0.63898701  0.92845250  0.20884609    -0.80400
O468        O  0.61001572  0.95371517  0.29463769    -0.84600
O469        O  0.56912996  0.97006575  0.26360582    -0.79400
O470        O  0.63378765  0.86713969  0.25969029    -0.81200
O471        O  0.64790242  0.99637348  0.22768000    -0.83900
C472        C  0.55628026  0.95099184  0.25094432     0.96800
C473        C  0.59990801  0.92435232  0.29901363     1.04300
O474        O  0.62159278  0.94078441  0.25152578    -1.12900
O475        O  0.67386000  0.95947447  0.26403174    -0.75400
O476        O  0.64633587  0.00124482  0.27356031    -0.78800
O477        O  0.56647210  0.92419151  0.24247833    -0.79500
C478        C  0.66919463  0.98763731  0.27347090     0.95700
O479        O  0.60747738  0.00966877  0.23944897    -0.77500
O480        O  0.66730518  0.89465039  0.24366174    -0.82700
C481        C  0.62336250  0.90355581  0.20480364     0.98300
C482        C  0.65787955  0.86869102  0.25359547     1.04300
O483        O  0.60867521  0.88891420  0.21887115    -0.78300
C484        C  0.62795515  0.01678315  0.22849785     1.02600
Fe485      Fe  0.37525588  0.06860826  0.97256900     1.65800
Fe486      Fe  0.40364807  0.09964380  0.01653899     1.73200
Fe487      Fe  0.35315238  0.14364900  0.99339076     1.54400
O488        O  0.35565902  0.14794756  0.95963154    -0.82100
O489        O  0.37497663  0.10200216  0.03963550    -0.80400
O490        O  0.38239052  0.10475509  0.94950191    -0.84600
O491        O  0.33463557  0.07265059  0.96862716    -0.79400
O492        O  0.38475844  0.17867029  0.99476833    -0.81200
O493        O  0.40109259  0.04549822  0.01740319    -0.83900
C494        C  0.31609729  0.08445220  0.98023962     0.96800
C495        C  0.37108513  0.13355500  0.94602445     1.04300
O496        O  0.37720528  0.10419145  0.99426500    -1.12900
O497        O  0.43364981  0.09744040  0.99439574    -0.75400
O498        O  0.41569464  0.05845320  0.97281905    -0.78800
O499        O  0.31985677  0.11060208  0.99228391    -0.79500
C500        C  0.43568228  0.07491743  0.97981358     0.95700
O501        O  0.36854995  0.03104666  0.99517789    -0.77500
O502        O  0.41060182  0.15268997  0.01877381    -0.82700
C503        C  0.35724548  0.12498605  0.04224379     0.98300
C504        C  0.40456628  0.17892015  0.00739377     1.04300
O505        O  0.34909125  0.14447305  0.02698811    -0.78300
C506        C  0.38493016  0.02339674  0.00977401     1.02600
Fe507      Fe  0.41036019  0.06264974  0.76991941     1.65800
Fe508      Fe  0.37800366  0.09108643  0.72655749     1.73200
Fe509      Fe  0.42847405  0.13830203  0.74691104     1.54400
O510        O  0.42860057  0.14374260  0.78052172    -0.82100
O511        O  0.40509007  0.09473175  0.70213608    -0.80400
O512        O  0.40433896  0.09939048  0.79264059    -0.84600
O513        O  0.45130167  0.06823167  0.77135560    -0.79400
O514        O  0.39570356  0.17100956  0.74695927    -0.81200
O515        O  0.38225477  0.03693343  0.72610218    -0.83900
C516        C  0.46837303  0.08202575  0.75903314     0.96800
C517        C  0.41455940  0.12911843  0.79499524     1.04300
O518        O  0.40579137  0.09737379  0.74765374    -1.12900
O519        O  0.34964205  0.08753240  0.74994027    -0.75400
O520        O  0.37018452  0.05144464  0.77218653    -0.78800
O521        O  0.46257738  0.10735269  0.74676670    -0.79500
C522        C  0.34933651  0.06646071  0.76551857     0.95700
O523        O  0.41571387  0.02403548  0.74790896    -0.77500
O524        O  0.36877092  0.14389494  0.72441483    -0.82700
C525        C  0.42225060  0.11824857  0.69868732     0.98300
C526        C  0.37462205  0.17007390  0.73582089     1.04300
O527        O  0.43033160  0.13872603  0.71330545    -0.78300
C528        C  0.39891065  0.01541352  0.73384956     1.02600
Fe529      Fe  0.16783040  0.48280425  0.98510799     1.65800
Fe530      Fe  0.11875126  0.44628455  0.01262050     1.73200
Fe531      Fe  0.17695160  0.40283570  0.00633410     1.54400
O532        O  0.18930895  0.40451823  0.97363774    -0.82100
O533        O  0.13027633  0.43284834  0.04255975    -0.80400
O534        O  0.17124773  0.45242488  0.95900333    -0.84600
O535        O  0.20716007  0.47440091  0.99147559    -0.79400
O536        O  0.14730097  0.36760661  0.99764311    -0.81200
O537        O  0.12374750  0.49905275  0.02118880    -0.83900
C538        C  0.21977424  0.45827269  0.00576654     0.96800
C539        C  0.18367104  0.42384769  0.95738995     1.04300
O540        O  0.15456687  0.44337517  0.00158337    -1.12900
O541        O  0.10401104  0.45798663  0.98311338    -0.75400
O542        O  0.13105753  0.50077069  0.97492584    -0.78800
O543        O  0.20936733  0.43329360  0.01614451    -0.79500
C544        C  0.10869842  0.48610180  0.97353597     0.95700
O545        O  0.16504323  0.51301354  0.01149754    -0.77500
O546        O  0.10967737  0.39506071  0.00578978    -0.82700
C547        C  0.14685920  0.41145318  0.05020931     0.98300
C548        C  0.12216612  0.36823677  0.99971318     1.04300
O549        O  0.16532725  0.39777100  0.03888610    -0.78300
C550        C  0.14383730  0.51945832  0.02165925     1.02600
Fe551      Fe  0.11264745  0.47763385  0.27257370     1.65800
Fe552      Fe  0.15572261  0.44065809  0.23932110     1.73200
Fe553      Fe  0.10084349  0.39658897  0.25488147     1.54400
O554        O  0.09300120  0.40028805  0.28814703    -0.82100
O555        O  0.13692987  0.42887478  0.21159345    -0.80400
O556        O  0.11366666  0.44823028  0.29945303    -0.84600
O557        O  0.07235432  0.46928735  0.27006920    -0.79400
O558        O  0.13270317  0.36356011  0.26204993    -0.81200
O559        O  0.15043433  0.49335727  0.23227236    -0.83900
C560        C  0.05815180  0.45238756  0.25713454     0.96800
C561        C  0.10132778  0.42013599  0.30315054     1.04300
O562        O  0.12300611  0.43783116  0.25550289    -1.12900
O563        O  0.17686942  0.45175171  0.26635221    -0.75400
O564        O  0.15120787  0.49391778  0.27843461    -0.78800
O565        O  0.06709680  0.42610988  0.24718164    -0.79500
C566        C  0.17361243  0.47918403  0.27702666     0.95700
O567        O  0.11117158  0.50800130  0.24582085    -0.77500
O568        O  0.16529498  0.38890124  0.24361040    -0.82700
C569        C  0.12117414  0.40418148  0.20748404     0.98300
C570        C  0.15579174  0.36312492  0.25372705     1.04300
O571        O  0.10731810  0.38869198  0.22180364    -0.78300
C572        C  0.13096299  0.51431963  0.23390942     1.02600
Fe573      Fe  0.87103724  0.56596961  0.98083856     1.65800
Fe574      Fe  0.90097846  0.59671692  0.02437921     1.73200
Fe575      Fe  0.85169744  0.64228781  0.00151954     1.54400
O576        O  0.85222240  0.64551039  0.96764782    -0.82100
O577        O  0.87242656  0.59946125  0.04750100    -0.80400
O578        O  0.87758404  0.60126129  0.95724099    -0.84600
O579        O  0.83006106  0.57083289  0.97827489    -0.79400
O580        O  0.88469120  0.67491119  0.00104439    -0.81200
O581        O  0.89791705  0.54260857  0.02548321    -0.83900
C582        C  0.81278810  0.58433380  0.99047728     0.96800
C583        C  0.86660670  0.63020441  0.95371607     1.04300
O584        O  0.87441055  0.60173988  0.00227612    -1.12900
O585        O  0.93036224  0.59417054  0.00187123    -0.75400
O586        O  0.91158216  0.55596942  0.98008325    -0.78800
O587        O  0.81802381  0.61054843  0.00207964    -0.79500
C588        C  0.93173482  0.57269550  0.98665166     0.95700
O589        O  0.86480763  0.52878784  0.00372395    -0.77500
O590        O  0.90861824  0.64978830  0.02656745    -0.82700
C591        C  0.85595830  0.62389079  0.05035114     0.98300
C592        C  0.90450423  0.67473348  0.01363583     1.04300
O593        O  0.84906991  0.64456314  0.03527141    -0.78300
C594        C  0.88105527  0.52095902  0.01836377     1.02600
Fe595      Fe  0.90956589  0.55900207  0.77414372     1.65800
Fe596      Fe  0.87801508  0.59200730  0.73171626     1.73200
Fe597      Fe  0.92755809  0.63726117  0.75469827     1.54400
O598        O  0.92638642  0.63904050  0.78844250    -0.82100
O599        O  0.90564505  0.59785845  0.70785593    -0.80400
O600        O  0.90253054  0.59285614  0.79834448    -0.84600
O601        O  0.95038635  0.56470243  0.77670314    -0.79400
O602        O  0.89479237  0.67001041  0.75519340    -0.81200
O603        O  0.88213035  0.53798808  0.72944599    -0.83900
C604        C  0.96757966  0.58004497  0.76523461     0.96800
C605        C  0.91205435  0.62262322  0.80199024     1.04300
O606        O  0.90527043  0.59619224  0.75338425    -1.12900
O607        O  0.84946780  0.58686879  0.75489898    -0.75400
O608        O  0.86940395  0.54741373  0.77523024    -0.78800
O609        O  0.96180454  0.60663123  0.75401235    -0.79500
C610        C  0.84897530  0.56465563  0.76988261     0.95700
O611        O  0.91594878  0.52339003  0.75043591    -0.77500
O612        O  0.86909323  0.64495118  0.73091490    -0.82700
C613        C  0.92229294  0.62238361  0.70561704     0.98300
C614        C  0.87456018  0.67033540  0.74307307     1.04300
O615        O  0.93009803  0.64107994  0.72121684    -0.78300
C616        C  0.89919088  0.51605609  0.73608340     1.02600
Fe617      Fe  0.61436487  0.47855475  0.77286902     1.65800
Fe618      Fe  0.66378391  0.44232540  0.74502942     1.73200
Fe619      Fe  0.60668967  0.39648887  0.75353511     1.54400
O620        O  0.59672797  0.39701511  0.78645500    -0.82100
O621        O  0.65126103  0.42709848  0.71557344    -0.80400
O622        O  0.61023471  0.44847633  0.79925218    -0.84600
O623        O  0.57520162  0.47081701  0.76546942    -0.79400
O624        O  0.63802264  0.36272437  0.76084226    -0.81200
O625        O  0.65823066  0.49433691  0.73586065    -0.83900
C626        C  0.56206315  0.45102006  0.75349856     0.96800
C627        C  0.60088267  0.41814507  0.80192123     1.04300
O628        O  0.62809982  0.43870352  0.75692132    -1.12900
O629        O  0.67954637  0.45577278  0.77384498    -0.75400
O630        O  0.65092830  0.49588296  0.78387892    -0.78800
O631        O  0.57207005  0.42383539  0.74535005    -0.79500
C632        C  0.67372166  0.48221471  0.78464558     0.95700
O633        O  0.61772942  0.50960664  0.74662094    -0.77500
O634        O  0.67460142  0.39215706  0.75245498    -0.82700
C635        C  0.63376037  0.40626454  0.70868513     0.98300
C636        C  0.66307401  0.36468162  0.75858512     1.04300
O637        O  0.61579942  0.39282803  0.72064923    -0.78300
C638        C  0.63874305  0.51550703  0.73608214     1.02600
Fe639      Fe  0.67132909  0.47115563  0.48484412     1.65800
Fe640      Fe  0.62084462  0.43829064  0.51316301     1.73200
Fe641      Fe  0.67598029  0.38901246  0.50478785     1.54400
O642        O  0.68563212  0.38885236  0.47181611    -0.82100
O643        O  0.63287851  0.42275478  0.54285627    -0.80400
O644        O  0.67366163  0.44091834  0.45861273    -0.84600
O645        O  0.71020237  0.46094603  0.49177330    -0.79400
O646        O  0.64329259  0.35712610  0.49741488    -0.81200
O647        O  0.62838817  0.49014702  0.52154013    -0.83900
C648        C  0.72225813  0.44164696  0.50480535     0.96800
C649        C  0.68162497  0.40992685  0.45617907     1.04300
O650        O  0.65621220  0.43236031  0.50117561    -1.12900
O651        O  0.60575728  0.45201037  0.48414004    -0.75400
O652        O  0.63538763  0.49108943  0.47429641    -0.78800
O653        O  0.71134751  0.41502242  0.51314084    -0.79500
C654        C  0.61223694  0.47855486  0.47357060     0.95700
O655        O  0.66968193  0.50205696  0.51102805    -0.77500
O656        O  0.60812425  0.38896455  0.50604465    -0.82700
C657        C  0.64985377  0.40108204  0.54973369     0.98300
C658        C  0.61829329  0.36095976  0.49944803     1.04300
O659        O  0.66689207  0.38619867  0.53764705    -0.78300
C660        C  0.64870135  0.50998269  0.52103106     1.02600
Fe661      Fe  0.37441481  0.55440297  0.48077859     1.65800
Fe662      Fe  0.40429046  0.58491549  0.52472896     1.73200
Fe663      Fe  0.35590630  0.63156833  0.50120602     1.54400
O664        O  0.35710355  0.63507015  0.46739425    -0.82100
O665        O  0.37559789  0.58919470  0.54779238    -0.80400
O666        O  0.38103203  0.58953803  0.45698821    -0.84600
O667        O  0.33340031  0.55942050  0.47853916    -0.79400
O668        O  0.38895074  0.66374623  0.50126147    -0.81200
O669        O  0.40040833  0.53080034  0.52619091    -0.83900
C670        C  0.31630970  0.57420991  0.49033083     0.96800
C671        C  0.37122330  0.61921996  0.45354379     1.04300
O672        O  0.37807090  0.59032603  0.50227396    -1.12900
O673        O  0.43382334  0.58091525  0.50254595    -0.75400
O674        O  0.41493206  0.54430935  0.47977024    -0.78800
O675        O  0.32186518  0.60077495  0.50148787    -0.79500
C676        C  0.43513306  0.56036649  0.48684702     0.95700
O677        O  0.36824943  0.51687040  0.50354550    -0.77500
O678        O  0.41315164  0.63794473  0.52637317    -0.82700
C679        C  0.35947761  0.61416807  0.55015835     0.98300
C680        C  0.40870978  0.66346967  0.51388811     1.04300
O681        O  0.35283576  0.63425036  0.53476158    -0.78300
C682        C  0.38415758  0.50893588  0.51841012     1.02600
Fe683      Fe  0.41124284  0.56414112  0.27344380     1.65800
Fe684      Fe  0.37951228  0.59663749  0.23107111     1.73200
Fe685      Fe  0.42967917  0.64211929  0.25280231     1.54400
O686        O  0.42870766  0.64565829  0.28668980    -0.82100
O687        O  0.40719463  0.59930787  0.20722847    -0.80400
O688        O  0.40695250  0.59836975  0.29783430    -0.84600
O689        O  0.45226086  0.56745258  0.27438056    -0.79400
O690        O  0.39721955  0.67608689  0.25255182    -0.81200
O691        O  0.38112079  0.54244155  0.22991851    -0.83900
C692        C  0.46938186  0.58352469  0.26323585     0.96800
C693        C  0.41623073  0.62838373  0.30106803     1.04300
O694        O  0.40706467  0.60112759  0.25246888    -1.12900
O695        O  0.35124349  0.59459947  0.25448347    -0.75400
O696        O  0.37065950  0.55571018  0.27570089    -0.78800
O697        O  0.46377768  0.61093354  0.25269009    -0.79500
C698        C  0.35038171  0.57278294  0.26967211     0.95700
O699        O  0.41527265  0.52709982  0.25011417    -0.77500
O700        O  0.37235251  0.64946441  0.22851285    -0.82700
C701        C  0.42401934  0.62334585  0.20402025     0.98300
C702        C  0.37746853  0.67578586  0.23990146     1.04300
O703        O  0.43204477  0.64345790  0.21895854    -0.78300
C704        C  0.39772089  0.51991915  0.23637907     1.02600
C705        C  0.37759413  0.63502520  0.43257777    -0.01700
C706        C  0.40434948  0.63848071  0.42684087    -0.09700
C707        C  0.41186592  0.64481882  0.40569037    -0.18500
C708        C  0.39271549  0.64695669  0.38928321     0.03900
C709        C  0.36545628  0.64523380  0.39536076     0.18000
C710        C  0.35814670  0.63976145  0.41690618    -0.20000
C711        C  0.34569729  0.64683527  0.37972444    -0.21200
C712        C  0.35233878  0.64799978  0.35816360    -0.19800
C713        C  0.37892968  0.64787385  0.35163206     0.19400
C714        C  0.39958093  0.64857173  0.36703222     0.01600
C715        C  0.42612359  0.64886208  0.35937690    -0.14500
C716        C  0.43178727  0.64569378  0.33750023    -0.12200
C717        C  0.41127209  0.64261290  0.32262590     0.01100
C718        C  0.38493767  0.64494167  0.32977640    -0.24400
H719        H  0.41968580  0.63462916  0.43873063     0.09100
H720        H  0.43284986  0.64627456  0.40255554     0.12700
H721        H  0.33744510  0.63647055  0.42118197     0.11400
H722        H  0.32492119  0.64582609  0.38415864     0.12600
H723        H  0.33651363  0.64784036  0.34647297     0.11600
H724        H  0.44291999  0.65004749  0.36995357     0.08700
H725        H  0.45223770  0.64335767  0.33236827     0.12000
H726        H  0.36897473  0.64211268  0.31831680     0.13800
C727        C  0.59099420  0.49755916  0.46286329    -0.01700
C728        C  0.57112014  0.47914284  0.45230860    -0.09700
C729        C  0.54580193  0.49318220  0.45025000    -0.18500
C730        C  0.53954366  0.52536963  0.45978313     0.03900
C731        C  0.56070467  0.54546030  0.46829272     0.18000
C732        C  0.58643213  0.53184277  0.46901720    -0.20000
C733        C  0.55561625  0.57722077  0.47820417    -0.21200
C734        C  0.52970272  0.58790310  0.48172413    -0.19800
C735        C  0.50842860  0.56716758  0.47522760     0.19400
C736        C  0.51295303  0.53654230  0.46320310     0.01600
C737        C  0.49066262  0.51696319  0.45669954    -0.14500
C738        C  0.46524787  0.52557080  0.46365935    -0.12200
C739        C  0.46125990  0.55408738  0.47703098     0.01100
C740        C  0.48274975  0.57572457  0.48187597    -0.24400
H741        H  0.57457598  0.45263974  0.44730111     0.09100
H742        H  0.53117009  0.47691934  0.44276890     0.12700
H743        H  0.60191583  0.54595648  0.47731692     0.11400
H744        H  0.57169871  0.59277833  0.48452219     0.12600
H745        H  0.52630221  0.61161177  0.49055989     0.11600
H746        H  0.49225787  0.49416093  0.44690976     0.08700
H747        H  0.44882864  0.50894741  0.45924724     0.12000
H748        H  0.47970719  0.59846685  0.49171483     0.13800
C749        C  0.63593498  0.39710711  0.68576867    -0.01700
C750        C  0.66132312  0.39519923  0.67661536    -0.09700
C751        C  0.66475059  0.39086157  0.65471776    -0.18500
C752        C  0.64272721  0.38888911  0.64092255     0.03900
C753        C  0.61691788  0.38953415  0.65029628     0.18000
C754        C  0.61374422  0.39298309  0.67260291    -0.20000
C755        C  0.59445232  0.38828166  0.63723860    -0.21200
C756        C  0.59699640  0.38828933  0.61511796    -0.19800
C757        C  0.62208166  0.38894915  0.60546342     0.19400
C758        C  0.64536683  0.38795690  0.61815506     0.01600
C759        C  0.67019942  0.38723881  0.60742583    -0.14500
C760        C  0.67177707  0.38968098  0.58511846    -0.12200
C761        C  0.64875876  0.39314105  0.57288379     0.01100
C762        C  0.62399105  0.39176177  0.58315786    -0.24400
H763        H  0.67883411  0.39776185  0.68649992     0.09100
H764        H  0.68492716  0.39037890  0.64902189     0.12700
H765        H  0.59405524  0.39447289  0.67952816     0.11400
H766        H  0.57473934  0.38849227  0.64416278     0.12600
H767        H  0.57916373  0.38851320  0.60547134     0.11600
H768        H  0.68878557  0.38540396  0.61583478     0.08700
H769        H  0.69107363  0.39040059  0.57750488     0.12000
H770        H  0.60602801  0.39373716  0.57370915     0.13800
C771        C  0.82369723  0.55760406  0.78093486    -0.01700
C772        C  0.82043122  0.52705417  0.79282819    -0.09700
C773        C  0.79560525  0.51782999  0.80082266    -0.18500
C774        C  0.77314890  0.53882958  0.79681853     0.03900
C775        C  0.77718493  0.57153064  0.78673123     0.18000
C776        C  0.80235310  0.58067424  0.77901069    -0.20000
C777        C  0.75573066  0.59374012  0.78295479    -0.21200
C778        C  0.72994954  0.58245708  0.78664746    -0.19800
C779        C  0.72521426  0.54869979  0.79404349     0.19400
C780        C  0.74670526  0.52714425  0.80046633     0.01600
C781        C  0.74081764  0.49326123  0.80783566    -0.14500
C782        C  0.71552717  0.47941911  0.80514018    -0.12200
C783        C  0.69532849  0.49947711  0.79610146     0.01100
C784        C  0.69952311  0.53493901  0.79259550    -0.24400
H785        H  0.83686003  0.50931900  0.79514990     0.09100
H786        H  0.79447413  0.49343283  0.80920818     0.12700
H787        H  0.80498125  0.60499472  0.77049279     0.11400
H788        H  0.75878332  0.61910143  0.77581280     0.12600
H789        H  0.71362715  0.59926375  0.78215734     0.11600
H790        H  0.75569647  0.47582829  0.81393230     0.08700
H791        H  0.71234213  0.45207627  0.80837502     0.12000
H792        H  0.68377454  0.55052011  0.78568459     0.13800
C793        C  0.90525341  0.63792570  0.82283439    -0.01700
C794        C  0.87842721  0.64080692  0.82842663    -0.09700
C795        C  0.87077701  0.64740243  0.84946105    -0.18500
C796        C  0.88988472  0.65027531  0.86584496     0.03900
C797        C  0.91717827  0.64905283  0.85984039     0.18000
C798        C  0.92459570  0.64344561  0.83841412    -0.20000
C799        C  0.93690696  0.65125508  0.87544729    -0.21200
C800        C  0.93022763  0.65244656  0.89696804    -0.19800
C801        C  0.90363487  0.65175724  0.90344442     0.19400
C802        C  0.88298287  0.65199332  0.88803686     0.01600
C803        C  0.85643065  0.65181281  0.89564567    -0.14500
C804        C  0.85079453  0.64826009  0.91749790    -0.12200
C805        C  0.87136482  0.64525060  0.93232964     0.01100
C806        C  0.89765338  0.64851432  0.92526334    -0.24400
H807        H  0.86319782  0.63644673  0.81653446     0.09100
H808        H  0.84976279  0.64843703  0.85254689     0.12700
H809        H  0.94535069  0.64066667  0.83417963     0.11400
H810        H  0.95769817  0.65061494  0.87103617     0.12600
H811        H  0.94603234  0.65265612  0.90867847     0.11600
H812        H  0.83962735  0.65281156  0.88505417     0.08700
H813        H  0.83037582  0.64538902  0.92262577     0.12000
H814        H  0.91363576  0.64596377  0.93675034     0.13800
C815        C  0.19703411  0.49640723  0.28592241    -0.01700
C816        C  0.19903849  0.53257301  0.28465099    -0.09700
C817        C  0.22347315  0.54884856  0.28732291    -0.18500
C818        C  0.24658473  0.52912737  0.29129873     0.03900
C819        C  0.24362717  0.49298143  0.29533341     0.18000
C820        C  0.21898450  0.47692087  0.29241693    -0.20000
C821        C  0.26562114  0.47269106  0.30072469    -0.21200
C822        C  0.29090814  0.48689145  0.30030203    -0.19800
C823        C  0.29470400  0.52128900  0.29376601     0.19400
C824        C  0.27260615  0.54329073  0.28978829     0.01600
C825        C  0.27758818  0.57743353  0.28242061    -0.14500
C826        C  0.30321327  0.58785262  0.27703402    -0.12200
C827        C  0.32458458  0.56504000  0.27954922     0.01100
C828        C  0.32043722  0.53275992  0.28929246    -0.24400
H829        H  0.18209723  0.54812391  0.27995806     0.09100
H830        H  0.22381110  0.57665027  0.28534673     0.12700
H831        H  0.21724036  0.44894481  0.29387166     0.11400
H832        H  0.26337723  0.44531858  0.30435824     0.12600
H833        H  0.30771120  0.47018290  0.30363512     0.11600
H834        H  0.26199179  0.59585817  0.27923653     0.08700
H835        H  0.30614267  0.61329291  0.26997888     0.12000
H836        H  0.33697919  0.51509153  0.29144306     0.13800
C837        C  0.95781605  0.56566007  0.97698217    -0.01700
C838        C  0.97887616  0.58890935  0.97972495    -0.09700
C839        C  0.00441025  0.58024766  0.97305942    -0.18500
C840        C  0.00973096  0.54745662  0.96396667     0.03900
C841        C  0.98797270  0.52478402  0.96022638     0.18000
C842        C  0.96226921  0.53442166  0.96625255    -0.20000
C843        C  0.99220891  0.49156297  0.95198734    -0.21200
C844        C  0.01780578  0.47899945  0.94944915    -0.19800
C845        C  0.03960899  0.49977422  0.95457588     0.19400
C846        C  0.03597784  0.53505952  0.96040424     0.01600
C847        C  0.05884282  0.55539737  0.96417509    -0.14500
C848        C  0.08375594  0.53987006  0.96568634    -0.12200
C849        C  0.08638754  0.50396820  0.96324322     0.01100
C850        C  0.06477397  0.48461277  0.95593656    -0.24400
H851        H  0.97575000  0.61353870  0.98761203     0.09100
H852        H  0.01974923  0.59896414  0.97634319     0.12700
H853        H  0.94601743  0.51634813  0.96400474     0.11400
H854        H  0.97565962  0.47436919  0.94882976     0.12600
H855        H  0.02052736  0.45231158  0.94451211     0.11600
H856        H  0.05790888  0.58287141  0.96726151     0.08700
H857        H  0.10042196  0.55542405  0.97090802     0.12000
H858        H  0.06700320  0.45690561  0.95349034     0.13800
C859        C  0.14291629  0.40227939  0.07317945    -0.01700
C860        C  0.16272658  0.38714142  0.08578733    -0.09700
C861        C  0.15848907  0.38130674  0.10772059    -0.18500
C862        C  0.13416698  0.39051634  0.11772221     0.03900
C863        C  0.11376020  0.40408845  0.10456539     0.18000
C864        C  0.11822953  0.40956924  0.08272881    -0.20000
C865        C  0.08916469  0.41325998  0.11332400    -0.21200
C866        C  0.08477047  0.41105716  0.13518048    -0.19800
C867        C  0.10483417  0.39956720  0.14886042     0.19400
C868        C  0.12959087  0.38816702  0.14029909     0.01600
C869        C  0.14909778  0.37668523  0.15485395    -0.14500
C870        C  0.14501029  0.37917796  0.17685195    -0.12200
C871        C  0.12126052  0.39239687  0.18513937     0.01100
C872        C  0.10083815  0.40136824  0.17111773    -0.24400
H873        H  0.18174960  0.38063112  0.07883177     0.09100
H874        H  0.17478897  0.37018857  0.11651120     0.12700
H875        H  0.10229953  0.42033668  0.07315575     0.11400
H876        H  0.07342850  0.42323599  0.10324923     0.12600
H877        H  0.06581049  0.41946406  0.14149093     0.11600
H878        H  0.16816673  0.36716197  0.14974570     0.08700
H879        H  0.16113663  0.37247714  0.18752653     0.12000
H880        H  0.08263739  0.41222462  0.17748117     0.13800
C881        C  0.37659581  0.14964393  0.92505484    -0.01700
C882        C  0.40307497  0.15508448  0.91907987    -0.09700
C883        C  0.41006489  0.16055078  0.89773408    -0.18500
C884        C  0.39070087  0.15954958  0.88145968     0.03900
C885        C  0.36363489  0.15605346  0.88778869     0.18000
C886        C  0.35681582  0.15176153  0.90948104    -0.20000
C887        C  0.34370368  0.15422225  0.87232420    -0.21200
C888        C  0.35013594  0.15309219  0.85075791    -0.19800
C889        C  0.37664707  0.15417839  0.84410062     0.19400
C890        C  0.39730235  0.15908907  0.85918855     0.01600
C891        C  0.42370897  0.16095724  0.85132563    -0.14500
C892        C  0.42944980  0.15442640  0.82977946    -0.12200
C893        C  0.40907294  0.14628946  0.81554867     0.01100
C894        C  0.38270195  0.14793858  0.82259051    -0.24400
H895        H  0.41866590  0.15319015  0.93092465     0.09100
H896        H  0.43092139  0.16341772  0.89436794     0.12700
H897        H  0.33637474  0.14683575  0.91399489     0.11400
H898        H  0.32305660  0.15190333  0.87696884     0.12600
H899        H  0.33430006  0.14990068  0.83924643     0.11600
H900        H  0.44040799  0.16587973  0.86159685     0.08700
H901        H  0.44994118  0.15334508  0.82459715     0.12000
H902        H  0.36686822  0.14186654  0.81149482     0.13800
C903        C  0.59117020  0.00019145  0.96278911    -0.01700
C904        C  0.58860185  0.03616407  0.96479387    -0.09700
C905        C  0.56375739  0.05181916  0.96290927    -0.18500
C906        C  0.54078286  0.03161413  0.95920685     0.03900
C907        C  0.54422604  0.99584785  0.95447742     0.18000
C908        C  0.56934068  0.98059747  0.95611576    -0.20000
C909        C  0.52232196  0.97486947  0.94993819    -0.21200
C910        C  0.49678731  0.98802437  0.95160421    -0.19800
C911        C  0.49264625  0.02223590  0.95819831     0.19400
C912        C  0.51453469  0.04486229  0.96156081     0.01600
C913        C  0.50920306  0.07888286  0.96878562    -0.14500
C914        C  0.48345231  0.08904435  0.97397838    -0.12200
C915        C  0.46219900  0.06604196  0.97157585     0.01100
C916        C  0.46678871  0.03323749  0.96278006    -0.24400
H917        H  0.60531485  0.05181052  0.96981064     0.09100
H918        H  0.56300093  0.07941649  0.96558630     0.12700
H919        H  0.57142264  0.95274378  0.95424087     0.11400
H920        H  0.52490229  0.94771065  0.94600455     0.12600
H921        H  0.48015598  0.97078744  0.94881776     0.11600
H922        H  0.52460773  0.09772806  0.97157056     0.08700
H923        H  0.48024698  0.11474620  0.98042084     0.12000
H924        H  0.45039355  0.01526649  0.96087434     0.13800
C925        C  0.64639245  0.89829532  0.07167286    -0.01700
C926        C  0.62032355  0.90060760  0.07944198    -0.09700
C927        C  0.61453700  0.89497993  0.10084487    -0.18500
C928        C  0.63481899  0.88719700  0.11552571     0.03900
C929        C  0.66113632  0.88311602  0.10747908     0.18000
C930        C  0.66664480  0.88816454  0.08559095    -0.20000
C931        C  0.68193024  0.87561325  0.12150384    -0.21200
C932        C  0.67748677  0.87423133  0.14340093    -0.19800
C933        C  0.65209870  0.88001822  0.15177466     0.19400
C934        C  0.63014827  0.88523776  0.13798939     0.01600
C935        C  0.60478114  0.89017672  0.14741755    -0.14500
C936        C  0.60189560  0.89320386  0.16954820    -0.12200
C937        C  0.62407073  0.89094657  0.18274989     0.01100
C938        C  0.64882308  0.88276497  0.17389897    -0.24400
H939        H  0.60415009  0.90750540  0.06886261     0.09100
H940        H  0.59407198  0.89801972  0.10544986     0.12700
H941        H  0.68679794  0.88609947  0.07965945     0.11400
H942        H  0.70195206  0.87209274  0.11557154     0.12600
H943        H  0.69421317  0.86977233  0.15391276     0.11600
H944        H  0.58695614  0.89322950  0.13812975     0.08700
H945        H  0.58266140  0.89954016  0.17620259     0.12000
H946        H  0.66598852  0.88082504  0.18427752     0.13800
C947        C  0.19500611  0.99422135  0.78489227    -0.01700
C948        C  0.21554033  0.97330291  0.79258477    -0.09700
C949        C  0.24077031  0.98709647  0.79566844    -0.18500
C950        C  0.24629630  0.02197402  0.79009560     0.03900
C951        C  0.22464546  0.04376261  0.78435351     0.18000
C952        C  0.19905351  0.02992840  0.78255600    -0.20000
C953        C  0.22905915  0.07822898  0.77820350    -0.21200
C954        C  0.25473703  0.09050926  0.77545812    -0.19800
C955        C  0.27645513  0.06874537  0.77920778     0.19400
C956        C  0.27262583  0.03491376  0.78782537     0.01600
C957        C  0.29533263  0.01455678  0.79214142    -0.14500
C958        C  0.32045538  0.02579430  0.78593516    -0.12200
C959        C  0.32370843  0.05765321  0.77544517     0.01100
C960        C  0.30185604  0.07975195  0.77309409    -0.24400
H961        H  0.21252836  0.94565421  0.79470973     0.09100
H962        H  0.25587442  0.96908564  0.80072644     0.12700
H963        H  0.18309157  0.04608835  0.77650033     0.11400
H964        H  0.21260014  0.09506043  0.77407329     0.12600
H965        H  0.25759153  0.11661511  0.76935866     0.11600
H966        H  0.29427801  0.98932760  0.79958367     0.08700
H967        H  0.33719744  0.00861576  0.78837115     0.12000
H968        H  0.30442026  0.10492078  0.76554061     0.13800
C969        C  0.13278182  0.89545304  0.67781507    -0.01700
C970        C  0.11246115  0.88203731  0.66512763    -0.09700
C971        C  0.11707070  0.87513457  0.64342271    -0.18500
C972        C  0.14226919  0.88149762  0.63393718     0.03900
C973        C  0.16297391  0.89338635  0.64736128     0.18000
C974        C  0.15811226  0.89983533  0.66892759    -0.20000
C975        C  0.18824242  0.90031032  0.63909059    -0.21200
C976        C  0.19308906  0.89788533  0.61736026    -0.19800
C977        C  0.17287219  0.88805110  0.60342414     0.19400
C978        C  0.14745628  0.87832762  0.61155963     0.01600
C979        C  0.12800489  0.86778287  0.59675696    -0.14500
C980        C  0.13271346  0.87037272  0.57485578    -0.12200
C981        C  0.15695346  0.88291035  0.56704826     0.01100
C982        C  0.17738796  0.89020092  0.58130600    -0.24400
H983        H  0.09282596  0.87815178  0.67175742     0.09100
H984        H  0.10038194  0.86583498  0.63435681     0.12700
H985        H  0.17414236  0.90942495  0.67883623     0.11400
H986        H  0.20412958  0.90901508  0.64941015     0.12600
H987        H  0.21254682  0.90488686  0.61133855     0.11600
H988        H  0.10856637  0.85908453  0.60158145     0.08700
H989        H  0.11660398  0.86497708  0.56391783     0.12000
H990        H  0.19598225  0.90046865  0.57523927     0.13800
C991        C  0.69177396  0.00653649  0.28223166    -0.01700
C992        C  0.71169391  0.98836226  0.29293198    -0.09700
C993        C  0.73663149  0.00313287  0.29567051    -0.18500
C994        C  0.74260076  0.03607454  0.28683101     0.03900
C995        C  0.72164619  0.05526510  0.27720112     0.18000
C996        C  0.69624829  0.04072807  0.27558086    -0.20000
C997        C  0.72668790  0.08744710  0.26757763    -0.21200
C998        C  0.75251365  0.09970541  0.26575862    -0.19800
C999        C  0.77372876  0.08030124  0.27385500     0.19400
C1000       C  0.76896419  0.04915856  0.28548605     0.01600
C1001       C  0.79101581  0.03128448  0.29405397    -0.14500
C1002       C  0.81676388  0.04181662  0.28932565    -0.12200
C1003       C  0.82134712  0.07062446  0.27615988     0.01100
C1004       C  0.79977671  0.09075987  0.26934537    -0.24400
H1005       H  0.70838384  0.96183217  0.29810474     0.09100
H1006       H  0.75121573  0.98704212  0.30342424     0.12700
H1007       H  0.68081652  0.05451003  0.26695210     0.11400
H1008       H  0.71076121  0.10228331  0.26034682     0.12600
H1009       H  0.75600638  0.12380677  0.25721644     0.11600
H1010       H  0.78910866  0.00846845  0.30393050     0.08700
H1011       H  0.83312054  0.02631057  0.29524106     0.12000
H1012       H  0.80319296  0.11370306  0.25963074     0.13800
C1013       C  0.95170762  0.06736693  0.47279168    -0.01700
C1014       C  0.97283301  0.09060702  0.47502147    -0.09700
C1015       C  0.99878186  0.07989415  0.47128539    -0.18500
C1016       C  0.00431187  0.04510206  0.46577511     0.03900
C1017       C  0.98253439  0.02263438  0.46161067     0.18000
C1018       C  0.95647874  0.03416296  0.46472863    -0.20000
C1019       C  0.98688095  0.98802421  0.45598317    -0.21200
C1020       C  0.01233969  0.97436353  0.45619350    -0.19800
C1021       C  0.03393111  0.99509361  0.46194423     0.19400
C1022       C  0.03046680  0.03112963  0.46587108     0.01600
C1023       C  0.05309706  0.05096942  0.47129137    -0.14500
C1024       C  0.07756455  0.03500880  0.47457371    -0.12200
C1025       C  0.08014613  0.99907805  0.47246787     0.01100
C1026       C  0.05865855  0.97948268  0.46523294    -0.24400
H1027       H  0.96939561  0.11675689  0.48069449     0.09100
H1028       H  0.01402572  0.09892531  0.47394667     0.12700
H1029       H  0.94011093  0.01618302  0.46279750     0.11400
H1030       H  0.97037407  0.97094730  0.45248748     0.12600
H1031       H  0.01499382  0.94701870  0.45282596     0.11600
H1032       H  0.05235908  0.07849005  0.47404218     0.08700
H1033       H  0.09406680  0.05052488  0.48018162     0.12000
H1034       H  0.06082498  0.95165041  0.46340161     0.13800
C1035       C  0.86838223  0.15413180  0.43169645    -0.01700
C1036       C  0.84919754  0.16334791  0.41659379    -0.09700
C1037       C  0.85644133  0.16909373  0.39516797    -0.18500
C1038       C  0.88314055  0.16511433  0.38826396     0.03900
C1039       C  0.90263253  0.15872292  0.40414787     0.18000
C1040       C  0.89513222  0.15365645  0.42551600    -0.20000
C1041       C  0.92934574  0.15491993  0.39847376    -0.21200
C1042       C  0.93702058  0.15492835  0.37716010    -0.19800
C1043       C  0.91817530  0.15859009  0.36094608     0.19400
C1044       C  0.89105719  0.16484459  0.36622630     0.01600
C1045       C  0.87285511  0.16794830  0.34918278    -0.14500
C1046       C  0.88078653  0.16184694  0.32811413    -0.12200
C1047       C  0.90716393  0.15358946  0.32318478     0.01100
C1048       C  0.92600221  0.15351324  0.33955171    -0.24400
H1049       H  0.82842075  0.16372610  0.42101213     0.09100
H1050       H  0.84057906  0.17492477  0.38420611     0.12700
H1051       H  0.91005971  0.14655266  0.43721589     0.11400
H1052       H  0.94430281  0.15043133  0.41058788     0.12600
H1053       H  0.95771073  0.15047624  0.37331853     0.11600
H1054       H  0.85208426  0.17313534  0.35174084     0.08700
H1055       H  0.86587949  0.16165927  0.31566743     0.12000
H1056       H  0.94631741  0.14642210  0.33587350     0.13800
C1057       C  0.92613948  0.66084805  0.57234680    -0.01700
C1058       C  0.92407669  0.68918713  0.58620892    -0.09700
C1059       C  0.92857534  0.68528513  0.60807926    -0.18500
C1060       C  0.93460157  0.65244167  0.61697380     0.03900
C1061       C  0.93762355  0.62401224  0.60274258     0.18000
C1062       C  0.93404453  0.62863469  0.58062702    -0.20000
C1063       C  0.94258903  0.59069601  0.61077948    -0.21200
C1064       C  0.94265106  0.58449211  0.63266742    -0.19800
C1065       C  0.93855425  0.61163943  0.64706926     0.19400
C1066       C  0.93593474  0.64630138  0.63949669     0.01600
C1067       C  0.93355251  0.67299568  0.65484191    -0.14500
C1068       C  0.93129850  0.66520144  0.67659764    -0.12200
C1069       C  0.93117329  0.63071830  0.68369374     0.01100
C1070       C  0.93577659  0.60413893  0.66894508    -0.24400
H1071       H  0.91819900  0.71442769  0.58017297     0.09100
H1072       H  0.92586126  0.70810639  0.61771605     0.12700
H1073       H  0.93549368  0.60651003  0.57005320     0.11400
H1074       H  0.94514744  0.56895438  0.60005720     0.12600
H1075       H  0.94522487  0.55810590  0.63835549     0.11600
H1076       H  0.93272336  0.70006230  0.65048559     0.08700
H1077       H  0.92794864  0.68613730  0.68776654     0.12000
H1078       H  0.93610877  0.57740570  0.67443534     0.13800
C1079       C  0.10099218  0.83303288  0.49845488    -0.01700
C1080       C  0.09685508  0.81585813  0.47908633    -0.09700
C1081       C  0.07742642  0.78983732  0.47738592    -0.18500
C1082       C  0.06172565  0.77985294  0.49519965     0.03900
C1083       C  0.06762305  0.79543771  0.51515357     0.18000
C1084       C  0.08673993  0.82196005  0.51651483    -0.20000
C1085       C  0.05387630  0.78519106  0.53356880    -0.21200
C1086       C  0.03354681  0.76082171  0.53249776    -0.19800
C1087       C  0.02588439  0.74674621  0.51289023     0.19400
C1088       C  0.03993803  0.75587188  0.49393050     0.01600
C1089       C  0.03049166  0.74223605  0.47442670    -0.14500
C1090       C  0.00727466  0.72221939  0.47368710    -0.12200
C1091       C  0.99329390  0.71381763  0.49235659     0.01100
C1092       C  0.00326541  0.72519398  0.51199215    -0.24400
H1093       H  0.10790918  0.82354171  0.46500322     0.09100
H1094       H  0.07494091  0.77819937  0.46189934     0.12700
H1095       H  0.09029733  0.83448137  0.53171679     0.11400
H1096       H  0.05858447  0.79656676  0.54889532     0.12600
H1097       H  0.02302312  0.75399387  0.54701763     0.11600
H1098       H  0.03981356  0.74817115  0.45935087     0.08700
H1099       H  0.99970997  0.71409442  0.45832419     0.12000
H1100       H  0.99217267  0.71954531  0.52644385     0.13800
C1101       C  0.89358224  0.80294222  0.52161107    -0.01700
C1102       C  0.86949472  0.81712134  0.52856494    -0.09700
C1103       C  0.86648012  0.85301966  0.53066758    -0.18500
C1104       C  0.88762065  0.87591911  0.52585875     0.03900
C1105       C  0.91272924  0.86113535  0.52095140     0.18000
C1106       C  0.91542509  0.82504267  0.51873166    -0.20000
C1107       C  0.93473037  0.88253158  0.51732996    -0.21200
C1108       C  0.93209501  0.91842718  0.51751669    -0.19800
C1109       C  0.90724308  0.93376643  0.52067895     0.19400
C1110       C  0.88459373  0.91280881  0.52494523     0.01600
C1111       C  0.85967985  0.92957430  0.52669868    -0.14500
C1112       C  0.85729752  0.96538444  0.52342727    -0.12200
C1113       C  0.87971169  0.98569213  0.51921322     0.01100
C1114       C  0.90469485  0.96988112  0.51847475    -0.24400
H1115       H  0.85242138  0.80058237  0.53124544     0.09100
H1116       H  0.84723180  0.86213301  0.53563077     0.12700
H1117       H  0.93433901  0.81424697  0.51384633     0.11400
H1118       H  0.95401201  0.87142463  0.51389286     0.12600
H1119       H  0.94942122  0.93427224  0.51425813     0.11600
H1120       H  0.84152294  0.91550852  0.52954115     0.08700
H1121       H  0.83781286  0.97722077  0.52389553     0.12000
H1122       H  0.92201442  0.98550993  0.51472947     0.13800
C1123       C  0.85310803  0.57940457  0.51398563    -0.01700
C1124       C  0.85446977  0.55325545  0.49848158    -0.09700
C1125       C  0.83597134  0.52592943  0.49818442    -0.18500
C1126       C  0.81537896  0.52363291  0.51356108     0.03900
C1127       C  0.81494265  0.54917714  0.52987891     0.18000
C1128       C  0.83348315  0.57662142  0.52986731    -0.20000
C1129       C  0.79552502  0.54778869  0.54586179    -0.21200
C1130       C  0.77578866  0.52253503  0.54553607    -0.19800
C1131       C  0.77467876  0.49812596  0.52908467     0.19400
C1132       C  0.79469211  0.49783493  0.51301931     0.01600
C1133       C  0.79213612  0.47301653  0.49652950    -0.14500
C1134       C  0.76964477  0.45158860  0.49516253    -0.12200
C1135       C  0.74941503  0.45314847  0.51051349     0.01100
C1136       C  0.75263661  0.47559858  0.52785875    -0.24400
H1137       H  0.86943338  0.55446945  0.48608020     0.09100
H1138       H  0.83805838  0.50721491  0.48555723     0.12700
H1139       H  0.83233346  0.59627386  0.54216447     0.11400
H1140       H  0.79523970  0.56690036  0.55849759     0.12600
H1141       H  0.76070243  0.52287904  0.55787521     0.11600
H1142       H  0.80642170  0.47099711  0.48377864     0.08700
H1143       H  0.76721921  0.43527542  0.48126173     0.12000
H1144       H  0.73665446  0.47790516  0.53937795     0.13800
C1145       C  0.84655900  0.65763601  0.18419575    -0.01700
C1146       C  0.84183610  0.62384129  0.17699461    -0.09700
C1147       C  0.83847928  0.61713246  0.15518702    -0.18500
C1148       C  0.83965805  0.64425687  0.13984864     0.03900
C1149       C  0.84213581  0.67877055  0.14749625     0.18000
C1150       C  0.84573412  0.68506891  0.16939720    -0.20000
C1151       C  0.84223247  0.70674614  0.13315856    -0.21200
C1152       C  0.84136709  0.70115656  0.11125347    -0.19800
C1153       C  0.84097231  0.66742049  0.10308813     0.19400
C1154       C  0.83966901  0.63843475  0.11725298     0.01600
C1155       C  0.84014200  0.60491490  0.10817660    -0.14500
C1156       C  0.84373045  0.60045455  0.08623026    -0.12200
C1157       C  0.84619690  0.62907560  0.07245726     0.01100
C1158       C  0.84357401  0.66250369  0.08089540    -0.24400
H1159       H  0.84228311  0.60223234  0.18810849     0.09100
H1160       H  0.83567208  0.59038636  0.15077819     0.12700
H1161       H  0.84901041  0.71138638  0.17487033     0.11400
H1162       H  0.84369301  0.73315866  0.13891340     0.12600
H1163       H  0.84218412  0.72338133  0.10060796     0.11600
H1164       H  0.83916861  0.58161634  0.11771861     0.08700
H1165       H  0.84559926  0.57433997  0.08006317     0.12000
H1166       H  0.84577870  0.68478189  0.07040311     0.13800
C1167       C  0.67634057  0.83971967  0.25805146    -0.01700
C1168       C  0.67728401  0.81079725  0.24461864    -0.09700
C1169       C  0.69787230  0.78637769  0.24636265    -0.18500
C1170       C  0.71833277  0.79031755  0.26165905     0.03900
C1171       C  0.71663135  0.81926483  0.27566958     0.18000
C1172       C  0.69594433  0.84359918  0.27363663    -0.20000
C1173       C  0.73600582  0.82438906  0.29129237    -0.21200
C1174       C  0.75741611  0.80189472  0.29308192    -0.19800
C1175       C  0.76023758  0.77383280  0.27914920     0.19400
C1176       C  0.74072687  0.76730377  0.26331243     0.01600
C1177       C  0.74500588  0.73864052  0.24958395    -0.14500
C1178       C  0.76810906  0.71825237  0.25109498    -0.12200
C1179       C  0.78762882  0.72551422  0.26639552    -0.11700
C1180       C  0.78302508  0.75295956  0.28065199    -0.24400
H1181       H  0.66257637  0.80778109  0.23217153     0.09100
H1182       H  0.69756712  0.76507853  0.23527361     0.12700
H1183       H  0.69551096  0.86631006  0.28380401     0.11400
H1184       H  0.73477040  0.84625310  0.30207311     0.12600
H1185       H  0.77221221  0.80693593  0.30521764     0.11600
H1186       H  0.73114981  0.73190095  0.23718717     0.08700
H1187       H  0.77106949  0.69744005  0.23978243     0.12000
H1188       H  0.79775830  0.75899884  0.29266956     0.13800
C1189       C  0.89897363  0.98657844  0.23365412    -0.01700
C1190       C  0.87510282  0.97229655  0.22638661    -0.09700
C1191       C  0.87257102  0.93653168  0.22341175    -0.18500
C1192       C  0.89407606  0.91387810  0.22746719     0.03900
C1193       C  0.91889667  0.92889600  0.23298963     0.18000
C1194       C  0.92101101  0.96483113  0.23636454    -0.20000
C1195       C  0.94124890  0.90783458  0.23577422    -0.21200
C1196       C  0.93927653  0.87196593  0.23400688    -0.19800
C1197       C  0.91470866  0.85620998  0.23023755     0.19400
C1198       C  0.89169825  0.87691301  0.22691542     0.01600
C1199       C  0.86705409  0.85969882  0.22465348    -0.14500
C1200       C  0.86522580  0.82366970  0.22682201    -0.12200
C1201       C  0.88791888  0.80358743  0.23036747     0.01100
C1202       C  0.91272289  0.81984937  0.23120532    -0.24400
H1203       H  0.85787547  0.98864937  0.22397840     0.09100
H1204       H  0.85348612  0.92734508  0.21814538     0.12700
H1205       H  0.93970217  0.97582095  0.24160368     0.11400
H1206       H  0.96032200  0.91914781  0.23965790     0.12600
H1207       H  0.95687777  0.85635877  0.23658339     0.11600
H1208       H  0.84864707  0.87348152  0.22252121     0.08700
H1209       H  0.84584850  0.81149793  0.22646822     0.12000
H1210       H  0.93022217  0.80438299  0.23455523     0.13800
C1211       C  0.87399634  0.64343379  0.32354444    -0.01700
C1212       C  0.85459435  0.63208221  0.33794903    -0.09700
C1213       C  0.86127270  0.62530606  0.35936158    -0.18500
C1214       C  0.88760570  0.63015592  0.36688657     0.03900
C1215       C  0.90734591  0.63915935  0.35164210     0.18000
C1216       C  0.90043529  0.64525773  0.33032366    -0.20000
C1217       C  0.93368723  0.64425165  0.35791213    -0.21200
C1218       C  0.94069596  0.64287313  0.37930500    -0.19800
C1219       C  0.92155445  0.63626799  0.39495835     0.19400
C1220       C  0.89489067  0.62861320  0.38900157     0.01600
C1221       C  0.87644383  0.62214538  0.40557150    -0.14500
C1222       C  0.88361495  0.62642665  0.42697415    -0.12200
C1223       C  0.90942074  0.63631173  0.43256099     0.01100
C1224       C  0.92856405  0.63977773  0.41657215    -0.24400
H1225       H  0.83404892  0.63049525  0.33300546     0.09100
H1226       H  0.84526692  0.61780005  0.36982147     0.12700
H1227       H  0.91556859  0.65372019  0.31910905     0.11400
H1228       H  0.94881033  0.65079544  0.34625344     0.12600
H1229       H  0.96104950  0.64840263  0.38369596     0.11600
H1230       H  0.85603023  0.61561689  0.40245848     0.08700
H1231       H  0.86844338  0.62425470  0.43918234     0.12000
H1232       H  0.94837459  0.64823815  0.42085480     0.13800
C1233       C  0.92105592  0.58114745  0.24397740    -0.01700
C1234       C  0.93409829  0.57002578  0.22544757    -0.09700
C1235       C  0.95397932  0.54462597  0.22635215    -0.18500
C1236       C  0.96218397  0.53014707  0.24606619     0.03900
C1237       C  0.94861832  0.54117112  0.26480836     0.18000
C1238       C  0.92793933  0.56578612  0.26354560    -0.20000
C1239       C  0.95655611  0.52874795  0.28483497    -0.21200
C1240       C  0.97837020  0.50684229  0.28679451    -0.19800
C1241       C  0.99251679  0.49610330  0.26874254     0.19400
C1242       C  0.98413012  0.50652465  0.24803060     0.01600
C1243       C  0.99868654  0.49369389  0.23034238    -0.14500
C1244       C  0.02159129  0.47343567  0.23322680    -0.12200
C1245       C  0.03076794  0.46546257  0.25374227     0.01100
C1246       C  0.01568790  0.47615099  0.27138262    -0.24400
H1247       H  0.92919286  0.58153346  0.21014834     0.09100
H1248       H  0.96328108  0.53784920  0.21144916     0.12700
H1249       H  0.91831078  0.57462376  0.27802623     0.11400
H1250       H  0.94634994  0.53695526  0.29918774     0.12600
H1251       H  0.98450271  0.49870156  0.30261454     0.11600
H1252       H  0.99320117  0.49957286  0.21410861     0.08700
H1253       H  0.03304667  0.46577954  0.21938689     0.12000
H1254       H  0.02269845  0.47009082  0.28733012     0.13800
C1255       C  0.18446475  0.87883660  0.31647698    -0.01700
C1256       C  0.17802068  0.91276407  0.32236657    -0.09700
C1257       C  0.17691305  0.92197143  0.34395961    -0.18500
C1258       C  0.18222461  0.89726000  0.36027479     0.03900
C1259       C  0.19014831  0.86347320  0.35398905     0.18000
C1260       C  0.19128104  0.85474536  0.33237906    -0.20000
C1261       C  0.19619581  0.83812499  0.36927936    -0.21200
C1262       C  0.19423044  0.84540426  0.39088053    -0.19800
C1263       C  0.18588227  0.87808859  0.39772166     0.19400
C1264       C  0.17967048  0.90450653  0.38254098     0.01600
C1265       C  0.17069324  0.93672058  0.39034015    -0.14500
C1266       C  0.16816838  0.94244476  0.41220070    -0.12200
C1267       C  0.17458633  0.91644847  0.42714177     0.01100
C1268       C  0.18349032  0.88432513  0.41971939    -0.24400
H1269       H  0.17262736  0.93175466  0.31033384     0.09100
H1270       H  0.17137220  0.94837419  0.34736380     0.12700
H1271       H  0.19664906  0.82849348  0.32791465     0.11400
H1272       H  0.20230141  0.81233456  0.36448989     0.12600
H1273       H  0.19896023  0.82516070  0.40232059     0.11600
H1274       H  0.16523646  0.95792236  0.37997640     0.08700
H1275       H  0.16119540  0.96762646  0.41738354     0.12000
H1276       H  0.18835548  0.86397896  0.43106171     0.13800
C1277       C  0.99297499  0.06538911  0.26796836    -0.01700
C1278       C  0.01510503  0.07542373  0.25572525    -0.09700
C1279       C  0.03740996  0.05347074  0.25380626    -0.18500
C1280       C  0.03801938  0.02026636  0.26371598     0.03900
C1281       C  0.01555803  0.01053335  0.27612024     0.18000
C1282       C  0.99390381  0.03307686  0.27842599    -0.20000
C1283       C  0.01423346  0.97773002  0.28570468    -0.21200
C1284       C  0.03440190  0.95378099  0.28281888    -0.19800
C1285       C  0.05679606  0.96221655  0.27069527     0.19400
C1286       C  0.05945295  0.99579756  0.26136752     0.01600
C1287       C  0.08325018  0.00286405  0.25000457    -0.14500
C1288       C  0.10294032  0.97718026  0.24742034    -0.12200
C1289       C  0.09930558  0.94365191  0.25577672     0.01100
C1290       C  0.07631218  0.93674777  0.26761302    -0.24400
H1291       H  0.01500453  0.10000538  0.24728305     0.09100
H1292       H  0.05356480  0.06259484  0.24396460     0.12700
H1293       H  0.97701575  0.02445520  0.28778233     0.11400
H1294       H  0.99710849  0.97018021  0.29512461     0.12600
H1295       H  0.03238614  0.92831654  0.29007069     0.11600
H1296       H  0.08699880  0.02791446  0.24285858     0.08700
H1297       H  0.12053300  0.98313967  0.23816512     0.12000
H1298       H  0.07344348  0.91099908  0.27432034     0.13800
C1299       C  0.08944219  0.77820219  0.29118184    -0.01700
C1300       C  0.08663486  0.74265259  0.28735849    -0.09700
C1301       C  0.06181104  0.72687648  0.28919115    -0.18500
C1302       C  0.03919973  0.74661359  0.29475691     0.03900
C1303       C  0.04321464  0.78114789  0.30194840     0.18000
C1304       C  0.06827371  0.79661771  0.30010044    -0.20000
C1305       C  0.02174963  0.80109804  0.30892881    -0.21200
C1306       C  0.99600125  0.78876362  0.30684973    -0.19800
C1307       C  0.99123090  0.75671281  0.29716971     0.19400
C1308       C  0.01273441  0.73460408  0.29163764     0.01600
C1309       C  0.00685778  0.70303245  0.28125228    -0.14500
C1310       C  0.98102124  0.69534692  0.27490544    -0.12200
C1311       C  0.96018124  0.71833616  0.27919651     0.01100
C1312       C  0.96521590  0.74797798  0.29140794    -0.24400
H1313       H  0.10294310  0.72786007  0.28073359     0.09100
H1314       H  0.06066042  0.69984712  0.28492398     0.12700
H1315       H  0.07063620  0.82404538  0.30345537     0.11400
H1316       H  0.02478685  0.82711835  0.31495698     0.12600
H1317       H  0.97967950  0.80546269  0.31143598     0.11600
H1318       H  0.02196302  0.68473451  0.27665860     0.08700
H1319       H  0.97752200  0.67182370  0.26593069     0.12000
H1320       H  0.94916652  0.76576444  0.29500071     0.13800
C1321       C  0.35889567  0.70604106  0.23827839    -0.01700
C1322       C  0.35921039  0.73345983  0.25295878    -0.09700
C1323       C  0.33932188  0.75914102  0.25265918    -0.18500
C1324       C  0.31820405  0.75803275  0.23770651     0.03900
C1325       C  0.31877770  0.73110897  0.22228718     0.18000
C1326       C  0.33896506  0.70596159  0.22259137    -0.20000
C1327       C  0.29857168  0.72841663  0.20707956    -0.21200
C1328       C  0.27701271  0.75084021  0.20742347    -0.19800
C1329       C  0.27509736  0.77673641  0.22291293     0.19400
C1330       C  0.29594380  0.78144478  0.23796540     0.01600
C1331       C  0.29275583  0.80815023  0.25322731    -0.14500
C1332       C  0.26902683  0.82717583  0.25454785    -0.12200
C1333       C  0.24807811  0.82098323  0.24038017     0.01100
C1334       C  0.25165285  0.79652234  0.22418590    -0.24400
H1335       H  0.37437080  0.73448180  0.26516942     0.09100
H1336       H  0.34054583  0.77899300  0.26468697     0.12700
H1337       H  0.33848470  0.68532003  0.21089547     0.11400
H1338       H  0.29901694  0.70807059  0.19519498     0.12600
H1339       H  0.26130540  0.74721635  0.19584474     0.11600
H1340       H  0.30774344  0.81373993  0.26498059     0.08700
H1341       H  0.26643386  0.84540233  0.26749593     0.12000
H1342       H  0.23523973  0.79094906  0.21354867     0.13800
C1343       C  0.13238697  0.54856331  0.22337574    -0.01700
C1344       C  0.15703291  0.56275009  0.21785545    -0.09700
C1345       C  0.15942245  0.59802533  0.21316180    -0.18500
C1346       C  0.13711097  0.62022670  0.21417949     0.03900
C1347       C  0.11178149  0.60488061  0.21747739     0.18000
C1348       C  0.10963502  0.56929691  0.22182988    -0.20000
C1349       C  0.08896274  0.62550620  0.21809687    -0.21200
C1350       C  0.09099072  0.66143334  0.21757463    -0.19800
C1351       C  0.11588807  0.67740410  0.21656130     0.19400
C1352       C  0.13922608  0.65713166  0.21386338     0.01600
C1353       C  0.16386410  0.67461492  0.21292157    -0.14500
C1354       C  0.16548536  0.70999983  0.21721038    -0.12200
C1355       C  0.14262968  0.72914482  0.22191230     0.01100
C1356       C  0.11776310  0.71323013  0.22008830    -0.24400
H1357       H  0.17486157  0.54709638  0.21858113     0.09100
H1358       H  0.17915487  0.60733832  0.20988304     0.12700
H1359       H  0.09038217  0.55826582  0.22559439     0.11400
H1360       H  0.06954910  0.61385652  0.22017024     0.12600
H1361       H  0.07310194  0.67678134  0.21926645     0.11600
H1362       H  0.18237732  0.66142727  0.21020908     0.08700
H1363       H  0.18489390  0.72203365  0.21798205     0.12000
H1364       H  0.09995173  0.72797281  0.22352041     0.13800
C1365       C  0.09336506  0.90810683  0.81645451    -0.01700
C1366       C  0.09032960  0.87350456  0.82275211    -0.09700
C1367       C  0.08854133  0.86480724  0.84441999    -0.18500
C1368       C  0.08992576  0.89067357  0.86044934     0.03900
C1369       C  0.09131374  0.92585065  0.85380553     0.18000
C1370       C  0.09279506  0.93415170  0.83208365    -0.20000
C1371       C  0.09224344  0.95258460  0.86885860    -0.21200
C1372       C  0.09298079  0.94508024  0.89055155    -0.19800
C1373       C  0.09291231  0.91066416  0.89769706     0.19400
C1374       C  0.09092628  0.88297589  0.88275184     0.01600
C1375       C  0.09108868  0.84873125  0.89074047    -0.14500
C1376       C  0.09434216  0.84223243  0.91241976    -0.12200
C1377       C  0.09725127  0.86945941  0.92703203     0.01100
C1378       C  0.09573926  0.90371146  0.91965445    -0.24400
H1379       H  0.09036988  0.85300408  0.81098138     0.09100
H1380       H  0.08674757  0.83757531  0.84807930     0.12700
H1381       H  0.09445352  0.96118828  0.82737589     0.11400
H1382       H  0.09305779  0.97950210  0.86379924     0.12600
H1383       H  0.09431056  0.96631907  0.90178373     0.11600
H1384       H  0.08939897  0.82630903  0.88063671     0.08700
H1385       H  0.09492807  0.81545151  0.91774395     0.12000
H1386       H  0.09792445  0.92490115  0.93084677     0.13800
C1387       C  0.03559706  0.81684825  0.00192963    -0.01700
C1388       C  0.02766779  0.80726143  0.02255490    -0.09700
C1389       C  0.00492318  0.78671991  0.02577482    -0.18500
C1390       C  0.98936552  0.77513854  0.00832554     0.03900
C1391       C  0.99678048  0.78674772  0.98759103     0.18000
C1392       C  0.01970336  0.80702705  0.98462294    -0.20000
C1393       C  0.98184184  0.77704305  0.96976959    -0.21200
C1394       C  0.95979531  0.75563227  0.97197549    -0.19800
C1395       C  0.95241584  0.74261869  0.99200225     0.19400
C1396       C  0.96716206  0.75193327  0.01049810     0.01600
C1397       C  0.95958377  0.73653641  0.03013076    -0.14500
C1398       C  0.93875778  0.71242924  0.03119385    -0.12200
C1399       C  0.92423081  0.70349615  0.01292651     0.01100
C1400       C  0.93090883  0.71931058  0.99345761    -0.24400
H1401       H  0.03995785  0.81388387  0.03611041     0.09100
H1402       H  0.00031395  0.77967402  0.04203151     0.12700
H1403       H  0.02595845  0.81396376  0.96858447     0.11400
H1404       H  0.98737611  0.78589146  0.95393339     0.12600
H1405       H  0.94879768  0.74851180  0.95779907     0.11600
H1406       H  0.96994787  0.74176953  0.04480749     0.08700
H1407       H  0.93418994  0.70032617  0.04639838     0.12000
H1408       H  0.92025583  0.71197519  0.97913812     0.13800
C1409       C  0.14233557  0.55348111  0.03253425    -0.01700
C1410       C  0.11788781  0.56927609  0.03673426    -0.09700
C1411       C  0.11655060  0.60486119  0.04106203    -0.18500
C1412       C  0.13971743  0.62575250  0.04075122     0.03900
C1413       C  0.16457462  0.60875321  0.03873820     0.18000
C1414       C  0.16564731  0.57291605  0.03522771    -0.20000
C1415       C  0.18816085  0.62793018  0.03830142    -0.21200
C1416       C  0.18750047  0.66394668  0.03768402    -0.19800
C1417       C  0.16324808  0.68154778  0.03768730     0.19400
C1418       C  0.13907399  0.66285285  0.04037130     0.01600
C1419       C  0.11520071  0.68201992  0.04063402    -0.14500
C1420       C  0.11508948  0.71729738  0.03551990    -0.12200
C1421       C  0.13873977  0.73474494  0.03058259     0.01100
C1422       C  0.16288848  0.71732765  0.03318749    -0.24400
H1423       H  0.09961287  0.55472309  0.03516502     0.09100
H1424       H  0.09699078  0.61558545  0.04321672     0.12700
H1425       H  0.18476819  0.56073151  0.03260652     0.11400
H1426       H  0.20719244  0.61499170  0.03709049     0.12600
H1427       H  0.20601434  0.67802535  0.03601206     0.11600
H1428       H  0.09616010  0.67012902  0.04349604     0.08700
H1429       H  0.09620512  0.73053938  0.03415899     0.12000
H1430       H  0.18128946  0.73072350  0.02954881     0.13800
C1431       C  0.14664668  0.87137608  0.17824300    -0.01700
C1432       C  0.16110080  0.89655532  0.16700780    -0.09700
C1433       C  0.15753894  0.90087637  0.14494160    -0.18500
C1434       C  0.13923367  0.88009211  0.13348202     0.03900
C1435       C  0.12509738  0.85423123  0.14500768     0.18000
C1436       C  0.12906960  0.84999707  0.16690782    -0.20000
C1437       C  0.10682213  0.83270395  0.13472763    -0.21200
C1438       C  0.10233513  0.83601805  0.11301570    -0.19800
C1439       C  0.11608171  0.86085237  0.10104907     0.19400
C1440       C  0.13458262  0.88353532  0.11104863     0.01600
C1441       C  0.14803650  0.90790465  0.09799195    -0.14500
C1442       C  0.14448323  0.90808893  0.07585783    -0.12200
C1443       C  0.12698052  0.88475963  0.06624385     0.01100
C1444       C  0.11231945  0.86192745  0.07890703    -0.24400
H1445       H  0.17479556  0.91338480  0.17532759     0.09100
H1446       H  0.16918274  0.92089109  0.13733948     0.12700
H1447       H  0.11789743  0.83002143  0.17522391     0.11400
H1448       H  0.09597683  0.81300323  0.14354358     0.12600
H1449       H  0.08828622  0.81866776  0.10546943     0.11600
H1450       H  0.16217654  0.92616118  0.10429898     0.08700
H1451       H  0.15646249  0.92529430  0.06608771     0.12000
H1452       H  0.09933301  0.84323809  0.07129202     0.13800
C1453       C  0.29010460  0.06530552  0.97977177    -0.01700
C1454       C  0.26766534  0.07576411  0.99143562    -0.09700
C1455       C  0.24462225  0.05486899  0.99223744    -0.18500
C1456       C  0.24349064  0.02230222  0.98173447     0.03900
C1457       C  0.26617093  0.01227181  0.96975582     0.18000
C1458       C  0.28862836  0.03378128  0.96859690    -0.20000
C1459       C  0.26689336  0.98009355  0.95951344    -0.21200
C1460       C  0.24602380  0.95684670  0.96154838    -0.19800
C1461       C  0.22352750  0.96539039  0.97347885     0.19400
C1462       C  0.22137373  0.99859750  0.98321985     0.01600
C1463       C  0.19747357  0.00590667  0.99433031    -0.14500
C1464       C  0.17739473  0.98059062  0.99660827    -0.12200
C1465       C  0.18062977  0.94723712  0.98807608     0.01100
C1466       C  0.20354962  0.94026230  0.97619934    -0.24400
H1467       H  0.26807026  0.09981809  0.00029530     0.09100
H1468       H  0.22827386  0.06423321  0.00172577     0.12700
H1469       H  0.30564617  0.02489898  0.95954306     0.11400
H1470       H  0.28413529  0.97236418  0.95033459     0.12600
H1471       H  0.24765584  0.93173728  0.95392511     0.11600
H1472       H  0.19405138  0.03075597  0.00169843     0.08700
H1473       H  0.15989949  0.98656285  0.00594259     0.12000
H1474       H  0.20616124  0.91457721  0.96948160     0.13800
C1475       C  0.34880473  0.65107399  0.68356153    -0.01700
C1476       C  0.34014882  0.61865099  0.67631185    -0.09700
C1477       C  0.33700258  0.61240270  0.65443606    -0.18500
C1478       C  0.34250517  0.63856732  0.63908356     0.03900
C1479       C  0.34912655  0.67214988  0.64670369     0.18000
C1480       C  0.35221596  0.67801873  0.66865952    -0.20000
C1481       C  0.35381544  0.69939646  0.63234189    -0.21200
C1482       C  0.35334195  0.69369904  0.61046569    -0.19800
C1483       C  0.34868067  0.66046168  0.60239556     0.19400
C1484       C  0.34284117  0.63242853  0.61653806     0.01600
C1485       C  0.33930435  0.59913280  0.60753492    -0.14500
C1486       C  0.34328726  0.59359976  0.58570862    -0.12200
C1487       C  0.34987382  0.62114435  0.57202988     0.01100
C1488       C  0.35144777  0.65473164  0.58033956    -0.24400
H1489       H  0.33708556  0.59749767  0.68748787     0.09100
H1490       H  0.33088495  0.58662219  0.65000241     0.12700
H1491       H  0.35839079  0.70344770  0.67411108     0.11400
H1492       H  0.35855721  0.72515948  0.63807947     0.12600
H1493       H  0.35773053  0.71518033  0.59980592     0.11600
H1494       H  0.33482949  0.57655293  0.61708907     0.08700
H1495       H  0.34204219  0.56740934  0.57956517     0.12000
H1496       H  0.35700100  0.67602643  0.56986757     0.13800
C1497       C  0.42222380  0.57440607  0.74363424    -0.01700
C1498       C  0.42375185  0.55083774  0.76072637    -0.09700
C1499       C  0.44413501  0.52593634  0.76172790    -0.18500
C1500       C  0.46376054  0.52371370  0.74553095     0.03900
C1501       C  0.46116469  0.54635456  0.72768489     0.18000
C1502       C  0.44073095  0.57123857  0.72694749    -0.20000
C1503       C  0.47949064  0.54487718  0.71089871    -0.21200
C1504       C  0.50101363  0.52235089  0.71175428    -0.19800
C1505       C  0.50503744  0.50092022  0.72953614     0.19400
C1506       C  0.48630861  0.50085232  0.74660173     0.01600
C1507       C  0.49182530  0.47928372  0.76440447    -0.14500
C1508       C  0.51563923  0.46054189  0.76573761    -0.12200
C1509       C  0.53434847  0.46165852  0.74917609     0.01100
C1510       C  0.52853043  0.48111582  0.73085663    -0.24400
H1511       H  0.40976064  0.55251662  0.77381463     0.09100
H1512       H  0.44431894  0.50918314  0.77554771     0.12700
H1513       H  0.43967119  0.58892425  0.71346577     0.11400
H1514       H  0.47747403  0.56183730  0.69715107     0.12600
H1515       H  0.51510932  0.52252052  0.69867679     0.11600
H1516       H  0.47874949  0.47775947  0.77799894     0.08700
H1517       H  0.52009348  0.44643041  0.78029502     0.12000
H1518       H  0.54331175  0.48300880  0.71830857     0.13800
C1519       C  0.28224076  0.71047212  0.76261111    -0.01700
C1520       C  0.26935117  0.72301512  0.78087861    -0.09700
C1521       C  0.24690401  0.74442113  0.77927406    -0.18500
C1522       C  0.23710473  0.75530199  0.75916260     0.03900
C1523       C  0.24988395  0.74188220  0.74066092     0.18000
C1524       C  0.27170008  0.71900205  0.74254278    -0.20000
C1525       C  0.24182118  0.75297701  0.72036765    -0.21200
C1526       C  0.22240705  0.77843635  0.71802919    -0.19800
C1527       C  0.20985395  0.79279541  0.73588603     0.19400
C1528       C  0.21615874  0.78041609  0.75669106     0.01600
C1529       C  0.20162011  0.79442467  0.77403311    -0.14500
C1530       C  0.18268223  0.82075036  0.77089393    -0.12200
C1531       C  0.17794642  0.83449688  0.75050912     0.01100
C1532       C  0.19139730  0.81999005  0.73305420    -0.24400
H1533       H  0.27725063  0.71711630  0.79655216     0.09100
H1534       H  0.23850456  0.75355756  0.79404604     0.12700
H1535       H  0.28185496  0.71012565  0.72830812     0.11400
H1536       H  0.25135035  0.74287901  0.70617932     0.12600
H1537       H  0.21740017  0.78728817  0.70209476     0.11600
H1538       H  0.20454944  0.78560232  0.79021034     0.08700
H1539       H  0.17240114  0.83132929  0.78459107     0.12000
H1540       H  0.18753802  0.83008396  0.71717224     0.13800
C1541       C  0.38322512  0.79592075  0.73203649    -0.01700
C1542       C  0.40852563  0.80961742  0.72818231    -0.09700
C1543       C  0.41213158  0.84517600  0.72504188    -0.18500
C1544       C  0.39034547  0.86824727  0.72549524     0.03900
C1545       C  0.36447809  0.85378335  0.72743617     0.18000
C1546       C  0.36117347  0.81798301  0.73103201    -0.20000
C1547       C  0.34215455  0.87531021  0.72652634    -0.21200
C1548       C  0.34499428  0.91111277  0.72472010    -0.19800
C1549       C  0.37022758  0.92632553  0.72452936     0.19400
C1550       C  0.39331294  0.90512544  0.72483031     0.01600
C1551       C  0.41830327  0.92180065  0.72587697    -0.14500
C1552       C  0.42015061  0.95783036  0.72772723    -0.12200
C1553       C  0.39732436  0.97847610  0.72780963     0.01100
C1554       C  0.37247800  0.96265526  0.72537401    -0.24400
H1555       H  0.42584353  0.79298659  0.72869045     0.09100
H1556       H  0.43223141  0.85386170  0.72258122     0.12700
H1557       H  0.34148349  0.80738869  0.73360399     0.11400
H1558       H  0.32236180  0.86443426  0.72760207     0.12600
H1559       H  0.32731603  0.92710757  0.72444601     0.11600
H1560       H  0.43671530  0.90764729  0.72650415     0.08700
H1561       H  0.43951743  0.96957011  0.72974575     0.12000
H1562       H  0.35470137  0.97848424  0.72589328     0.13800
C1563       C  0.43294320  0.62872304  0.18166311    -0.01700
C1564       C  0.43456159  0.60024892  0.16786827    -0.09700
C1565       C  0.43781230  0.60489825  0.14588836    -0.18500
C1566       C  0.43886272  0.63849519  0.13676756     0.03900
C1567       C  0.43793343  0.66735838  0.15087513     0.18000
C1568       C  0.43560761  0.66223228  0.17311364    -0.20000
C1569       C  0.43787517  0.70117749  0.14261703    -0.21200
C1570       C  0.43735103  0.70698098  0.12067899    -0.19800
C1571       C  0.43750299  0.67913825  0.10639067     0.19400
C1572       C  0.43932898  0.64451894  0.11416882     0.01600
C1573       C  0.44064583  0.61749224  0.09894181    -0.14500
C1574       C  0.43825445  0.62441422  0.07706494    -0.12200
C1575       C  0.43434620  0.65835248  0.06962888     0.01100
C1576       C  0.43481527  0.68567644  0.08438064    -0.24400
H1577       H  0.43243270  0.57410508  0.17407789     0.09100
H1578       H  0.43820065  0.58167260  0.13637329     0.12700
H1579       H  0.43386259  0.68443152  0.18360358     0.11400
H1580       H  0.43723771  0.72332305  0.15321070     0.12600
H1581       H  0.43631518  0.73346928  0.11484893     0.11600
H1582       H  0.44299127  0.59064979  0.10346299     0.08700
H1583       H  0.43801147  0.60286436  0.06602387     0.12000
H1584       H  0.43212191  0.71210456  0.07876078     0.13800
C1585       C  0.35865891  0.58423735  0.01313561    -0.01700
C1586       C  0.34466549  0.57726076  0.03204999    -0.09700
C1587       C  0.32414123  0.55273557  0.03259885    -0.18500
C1588       C  0.31634693  0.53484536  0.01396750     0.03900
C1589       C  0.33080157  0.54179261  0.99484974     0.18000
C1590       C  0.35196552  0.56574747  0.99470013    -0.20000
C1591       C  0.32343002  0.52577275  0.97576360    -0.21200
C1592       C  0.30155094  0.50384712  0.97503593    -0.19800
C1593       C  0.28664309  0.49691810  0.99343479     0.19400
C1594       C  0.29411987  0.51149353  0.01333114     0.01600
C1595       C  0.27842094  0.50286921  0.03144037    -0.14500
C1596       C  0.25531593  0.48264511  0.02949717    -0.12200
C1597       C  0.24728517  0.47032399  0.00954400     0.01100
C1598       C  0.26353679  0.47672374  0.99176985    -0.24400
H1599       H  0.34938690  0.59128884  0.04650134     0.09100
H1600       H  0.31419116  0.54913528  0.04768270     0.12700
H1601       H  0.36230404  0.57141696  0.97989525     0.11400
H1602       H  0.33426485  0.53094481  0.96113671     0.12600
H1603       H  0.29596875  0.49266692  0.95984603     0.11600
H1604       H  0.28306052  0.51225538  0.04717893     0.08700
H1605       H  0.24284950  0.47850650  0.04337117     0.12000
H1606       H  0.25728909  0.46744368  0.97624013     0.13800
C1607       C  0.32585984  0.72218960  0.97173994    -0.01700
C1608       C  0.30480357  0.69904729  0.97476660    -0.09700
C1609       C  0.27942189  0.70745401  0.96776373    -0.18500
C1610       C  0.27424779  0.73998038  0.95812609     0.03900
C1611       C  0.29600628  0.76253953  0.95403208     0.18000
C1612       C  0.32165828  0.75296839  0.96024378    -0.20000
C1613       C  0.29171423  0.79577219  0.94559815    -0.21200
C1614       C  0.26608779  0.80869635  0.94378797    -0.19800
C1615       C  0.24438879  0.78802588  0.94952505     0.19400
C1616       C  0.24805413  0.75246334  0.95480214     0.01600
C1617       C  0.22529991  0.73192293  0.95860209    -0.14500
C1618       C  0.20060240  0.74746062  0.96120377    -0.12200
C1619       C  0.19816544  0.78353310  0.95984271     0.01100
C1620       C  0.21944526  0.80335068  0.95220480    -0.24400
H1621       H  0.30778096  0.67476629  0.98321669     0.09100
H1622       H  0.26401772  0.68899481  0.97148530     0.12700
H1623       H  0.33795875  0.77092006  0.95775123     0.11400
H1624       H  0.30825438  0.81285542  0.94208131     0.12600
H1625       H  0.26331935  0.83554214  0.93905558     0.11600
H1626       H  0.22624305  0.70420116  0.96087553     0.08700
H1627       H  0.18405357  0.73161067  0.96645800     0.12000
H1628       H  0.21722272  0.83122207  0.95044065     0.13800
C1629       C  0.40629563  0.63499569  0.93147993    -0.01700
C1630       C  0.37916825  0.63211788  0.92695182    -0.09700
C1631       C  0.37028376  0.62556913  0.90626889    -0.18500
C1632       C  0.38842651  0.62257606  0.88918235     0.03900
C1633       C  0.41602380  0.62244622  0.89419706     0.18000
C1634       C  0.42471163  0.62829179  0.91529732    -0.20000
C1635       C  0.43479952  0.61908513  0.87787752    -0.21200
C1636       C  0.42694045  0.61864019  0.85660447    -0.19800
C1637       C  0.40011386  0.62163306  0.85110986     0.19400
C1638       C  0.38031047  0.62229458  0.86725833     0.01600
C1639       C  0.35345566  0.62532243  0.86067846    -0.14500
C1640       C  0.34690409  0.63073674  0.83916624    -0.12200
C1641       C  0.36678136  0.63257728  0.82364711     0.01100
C1642       C  0.39316928  0.62653725  0.82959929    -0.24400
H1643       H  0.36463273  0.63710766  0.93933510     0.09100
H1644       H  0.34912198  0.62483184  0.90400675     0.12700
H1645       H  0.44570552  0.63080422  0.91869365     0.11400
H1646       H  0.45580071  0.61841128  0.88152803     0.12600
H1647       H  0.44207904  0.61761570  0.84432437     0.11600
H1648       H  0.33721336  0.62545717  0.87185291     0.08700
H1649       H  0.32645126  0.63579453  0.83486551     0.12000
H1650       H  0.40860535  0.62832951  0.81755880     0.13800
C1651       C  0.49568343  0.72086868  0.98608630    -0.01700
C1652       C  0.51756809  0.71029612  0.99836706    -0.09700
C1653       C  0.54054952  0.73118210  0.99968516    -0.18500
C1654       C  0.54209629  0.76379907  0.98909399     0.03900
C1655       C  0.51977564  0.77415174  0.97678305     0.18000
C1656       C  0.49743930  0.75268545  0.97512067    -0.20000
C1657       C  0.51933047  0.80648730  0.96656584    -0.21200
C1658       C  0.54035220  0.82936777  0.96862905    -0.19800
C1659       C  0.56269557  0.82026455  0.98056831     0.19400
C1660       C  0.56436991  0.78712792  0.99062928     0.01600
C1661       C  0.58805851  0.77940892  0.00192412    -0.14500
C1662       C  0.60854009  0.80418691  0.00383952    -0.12200
C1663       C  0.60589173  0.83731819  0.99470941     0.01100
C1664       C  0.58307868  0.84475597  0.98286114    -0.24400
H1665       H  0.51681464  0.68609221  0.00719165     0.09100
H1666       H  0.55654494  0.72169249  0.00952854     0.12700
H1667       H  0.48073750  0.76177135  0.96574810     0.11400
H1668       H  0.50227978  0.81450877  0.95724079     0.12600
H1669       H  0.53904805  0.85452694  0.96088846     0.11600
H1670       H  0.59103659  0.75464738  0.00965289     0.08700
H1671       H  0.62588581  0.79800580  0.01329985     0.12000
H1672       H  0.58088861  0.87036965  0.97580132     0.13800
C1673       C  0.40080975  0.80453886  0.01763856    -0.01700
C1674       C  0.37612469  0.81860921  0.02310666    -0.09700
C1675       C  0.37285115  0.85436249  0.02507815    -0.18500
C1676       C  0.39438326  0.87724425  0.02178410     0.03900
C1677       C  0.41989622  0.86260073  0.01819411     0.18000
C1678       C  0.42280439  0.82657113  0.01577038    -0.20000
C1679       C  0.44216852  0.88409437  0.01638189    -0.21200
C1680       C  0.43950908  0.91996200  0.01728656    -0.19800
C1681       C  0.41439828  0.93516650  0.01912935     0.19400
C1682       C  0.39140890  0.91405633  0.02131063     0.01600
C1683       C  0.36633683  0.93062432  0.02149776    -0.14500
C1684       C  0.36423335  0.96647093  0.01867288    -0.12200
C1685       C  0.38697452  0.98693563  0.01647968     0.01100
C1686       C  0.41200578  0.97133269  0.01747596    -0.24400
H1687       H  0.35888387  0.80202538  0.02481966     0.09100
H1688       H  0.35319650  0.86332282  0.02899601     0.12700
H1689       H  0.44206849  0.81572498  0.01191395     0.11400
H1690       H  0.46173315  0.87310852  0.01398304     0.12600
H1691       H  0.45709094  0.93593956  0.01556467     0.11600
H1692       H  0.34795410  0.91643919  0.02255219     0.08700
H1693       H  0.34473247  0.97818231  0.01764508     0.12000
H1694       H  0.42960947  0.98713901  0.01519132     0.13800
C1695       C  0.59017884  0.88196307  0.43339041    -0.01700
C1696       C  0.57714344  0.85934422  0.41946011    -0.09700
C1697       C  0.57580094  0.86640329  0.39765421    -0.18500
C1698       C  0.58810888  0.89620231  0.38897060     0.03900
C1699       C  0.59983284  0.92023064  0.40342911     0.18000
C1700       C  0.60052189  0.91309803  0.42548262    -0.20000
C1701       C  0.61201432  0.95034790  0.39568387    -0.21200
C1702       C  0.61357570  0.95664754  0.37388178    -0.19800
C1703       C  0.60313994  0.93288928  0.35927009     0.19400
C1704       C  0.59003316  0.90244309  0.36649337     0.01600
C1705       C  0.58021635  0.87919335  0.35086275    -0.14500
C1706       C  0.58347492  0.88594542  0.32901078    -0.12200
C1707       C  0.59647188  0.91604281  0.32204108     0.01100
C1708       C  0.60613926  0.93935005  0.33739889    -0.24400
H1709       H  0.56902968  0.83508979  0.42539450     0.09100
H1710       H  0.56587229  0.84740931  0.38796222     0.12700
H1711       H  0.61092481  0.93039332  0.43621828     0.11400
H1712       H  0.62087778  0.96882926  0.40654334     0.12600
H1713       H  0.62349238  0.98000796  0.36838904     0.11600
H1714       H  0.57015065  0.85543560  0.35498897     0.08700
H1715       H  0.57573440  0.86757136  0.31756373     0.12000
H1716       H  0.61632979  0.96279036  0.33237685     0.13800
C1717       C  0.67742786  0.94700315  0.49957163    -0.01700
C1718       C  0.67860901  0.96730942  0.48099178    -0.09700
C1719       C  0.69759685  0.99389262  0.47888554    -0.18500
C1720       C  0.71576513  0.00127935  0.49554990     0.03900
C1721       C  0.71328159  0.98178320  0.51477796     0.18000
C1722       C  0.69460828  0.95479954  0.51645434    -0.20000
C1723       C  0.72983548  0.98875203  0.53214966    -0.21200
C1724       C  0.74927044  0.01423890  0.53078349    -0.19800
C1725       C  0.75318079  0.03284691  0.51181803     0.19400
C1726       C  0.73660267  0.02665429  0.49383676     0.01600
C1727       C  0.74252323  0.04494199  0.47474108    -0.14500
C1728       C  0.76466288  0.06700633  0.47337174    -0.12200
C1729       C  0.78085958  0.07278540  0.49116739     0.01100
C1730       C  0.77451338  0.05635281  0.51046964    -0.24400
H1731       H  0.66553573  0.96170665  0.46773914     0.09100
H1732       H  0.69773408  0.00810584  0.46402408     0.12700
H1733       H  0.69361618  0.93936998  0.53096243     0.11400
H1734       H  0.72787612  0.97415577  0.54689655     0.12600
H1735       H  0.76189396  0.01868817  0.54449399     0.11600
H1736       H  0.73116887  0.04137647  0.46034630     0.08700
H1737       H  0.76960195  0.07888375  0.45817568     0.12000
H1738       H  0.78749958  0.05987530  0.52408842     0.13800
C1739       C  0.69497299  0.78826818  0.45690763    -0.01700
C1740       C  0.71594994  0.80844872  0.44916531    -0.09700
C1741       C  0.74101238  0.79387601  0.44632604    -0.18500
C1742       C  0.74594844  0.75902031  0.45231250     0.03900
C1743       C  0.72389958  0.73799014  0.45820328     0.18000
C1744       C  0.69848536  0.75250372  0.45960094    -0.20000
C1745       C  0.72773125  0.70372376  0.46500866    -0.21200
C1746       C  0.75317977  0.69109217  0.46837971    -0.19800
C1747       C  0.77525186  0.71222035  0.46451208     0.19400
C1748       C  0.77206283  0.74554984  0.45504086     0.01600
C1749       C  0.79515492  0.76503878  0.45045286    -0.14500
C1750       C  0.81994669  0.75389567  0.45753901    -0.12200
C1751       C  0.82244246  0.72295101  0.46916606     0.01100
C1752       C  0.80030704  0.70127194  0.47147323    -0.24400
H1753       H  0.71341846  0.83612768  0.44683282     0.09100
H1754       H  0.75650848  0.81135383  0.44125795     0.12700
H1755       H  0.68222932  0.73690254  0.46575702     0.11400
H1756       H  0.71097094  0.68746039  0.46927475     0.12600
H1757       H  0.75555322  0.66531041  0.47510068     0.11600
H1758       H  0.79458660  0.78960811  0.44216856     0.08700
H1759       H  0.83695635  0.77058110  0.45494459     0.12000
H1760       H  0.80229792  0.67665241  0.47978347     0.13800
C1761       C  0.53454447  0.81431422  0.50673024    -0.01700
C1762       C  0.51588406  0.81310851  0.49020365    -0.09700
C1763       C  0.49318429  0.79233753  0.49179061    -0.18500
C1764       C  0.48869812  0.77100909  0.50988075     0.03900
C1765       C  0.50713652  0.77337252  0.52702770     0.18000
C1766       C  0.52959751  0.79524290  0.52543055    -0.20000
C1767       C  0.50383413  0.75243790  0.54516667    -0.21200
C1768       C  0.48332549  0.72823120  0.54631862    -0.19800
C1769       C  0.46537213  0.72441126  0.52943491     0.19400
C1770       C  0.46736932  0.74631769  0.51117720     0.01600
C1771       C  0.44838532  0.74175596  0.49477623    -0.14500
C1772       C  0.42896326  0.71580382  0.49611457    -0.12200
C1773       C  0.42768927  0.69328385  0.51373368     0.01100
C1774       C  0.44581985  0.69820220  0.53050246    -0.24400
H1775       H  0.51959431  0.82708059  0.47544745     0.09100
H1776       H  0.48019224  0.79233517  0.47815957     0.12700
H1777       H  0.54432887  0.79524250  0.53802780     0.11400
H1778       H  0.51767947  0.75409923  0.55834140     0.12600
H1779       H  0.48180238  0.71189258  0.56038943     0.11600
H1780       H  0.44821221  0.75754316  0.48055060     0.08700
H1781       H  0.41533270  0.71271773  0.48290591     0.12000
H1782       H  0.44500596  0.68121170  0.54432473     0.13800
C1783       C  0.63947746  0.72660546  0.52169356    -0.01700
C1784       C  0.66446685  0.71162761  0.52477152    -0.09700
C1785       C  0.66683869  0.67647509  0.52979848    -0.18500
C1786       C  0.64411063  0.65508540  0.53170519     0.03900
C1787       C  0.61877333  0.67096927  0.52984451     0.18000
C1788       C  0.61670366  0.70645307  0.52514993    -0.20000
C1789       C  0.59564691  0.65099074  0.53135346    -0.21200
C1790       C  0.59713847  0.61508358  0.53297403    -0.19800
C1791       C  0.62179190  0.59844938  0.53342302     0.19400
C1792       C  0.64561039  0.61827033  0.53384251     0.01600
C1793       C  0.66994493  0.60019374  0.53496573    -0.14500
C1794       C  0.67069783  0.56424069  0.53293808    -0.12200
C1795       C  0.64729776  0.54516513  0.53013970     0.01100
C1796       C  0.62282991  0.56214091  0.53184344    -0.24400
H1797       H  0.68235674  0.72669488  0.52223342     0.09100
H1798       H  0.68674643  0.66660661  0.53112327     0.12700
H1799       H  0.59725363  0.71799223  0.52305443     0.11400
H1800       H  0.57627545  0.66305448  0.53021080     0.12600
H1801       H  0.57890596  0.60016254  0.53296161     0.11600
H1802       H  0.68879937  0.61310968  0.53637991     0.08700
H1803       H  0.68985704  0.55154155  0.53221168     0.12000
H1804       H  0.60460765  0.54754882  0.52985258     0.13800
C1805       C  0.68369999  0.87354494  0.82406892    -0.01700
C1806       C  0.69207561  0.90667286  0.83018230    -0.09700
C1807       C  0.69661598  0.91428779  0.85174973    -0.18500
C1808       C  0.69292252  0.88880172  0.86792778     0.03900
C1809       C  0.68524354  0.85502556  0.86148694     0.18000
C1810       C  0.68084362  0.84779876  0.83989368    -0.20000
C1811       C  0.68134456  0.82869200  0.87665299    -0.21200
C1812       C  0.68369747  0.83553149  0.89831284    -0.19800
C1813       C  0.69011400  0.86884903  0.90535769     0.19400
C1814       C  0.69556956  0.89574858  0.89025464     0.01600
C1815       C  0.70239641  0.92873683  0.89822639    -0.14500
C1816       C  0.70148659  0.93546541  0.92005306    -0.12200
C1817       C  0.69421085  0.90956318  0.93475497     0.01100
C1818       C  0.68978204  0.87585785  0.92741008    -0.24400
H1819       H  0.69470206  0.92692056  0.81832516     0.09100
H1820       H  0.70259248  0.94050020  0.85527101     0.12700
H1821       H  0.67485701  0.82177875  0.83545305     0.11400
H1822       H  0.67574019  0.80276558  0.87174602     0.12600
H1823       H  0.67976481  0.81482538  0.90964876     0.11600
H1824       H  0.70761762  0.95022008  0.88797730     0.08700
H1825       H  0.70553045  0.96162281  0.92543739     0.12000
H1826       H  0.68420050  0.85570169  0.93869035     0.13800
C1827       C  0.74815972  0.81918298  0.75155496    -0.01700
C1828       C  0.76584982  0.81613873  0.76867671    -0.09700
C1829       C  0.78900973  0.79626714  0.76693558    -0.18500
C1830       C  0.79477856  0.77752577  0.74811048     0.03900
C1831       C  0.77708373  0.78147534  0.73056072     0.18000
C1832       C  0.75436752  0.80272392  0.73228501    -0.20000
C1833       C  0.78127583  0.76253096  0.71184021    -0.21200
C1834       C  0.80180801  0.73845839  0.71051720    -0.19800
C1835       C  0.81909860  0.73316006  0.72770848     0.19400
C1836       C  0.81648881  0.75352052  0.74646615     0.01600
C1837       C  0.83525978  0.74809840  0.76295164    -0.14500
C1838       C  0.85470810  0.72221990  0.76137849    -0.12200
C1839       C  0.85612303  0.70065690  0.74343885     0.01100
C1840       C  0.83853740  0.70691524  0.72645396    -0.24400
H1841       H  0.76111164  0.82803576  0.78384690     0.09100
H1842       H  0.80124520  0.79457255  0.78099373     0.12700
H1843       H  0.74033558  0.80411826  0.71919845     0.11400
H1844       H  0.76796649  0.76540842  0.69837727     0.12600
H1845       H  0.80388152  0.72339665  0.69604324     0.11600
H1846       H  0.83522678  0.76320184  0.77738972     0.08700
H1847       H  0.86810937  0.71826019  0.77466561     0.12000
H1848       H  0.83965613  0.69086205  0.71231021     0.13800
C1849       C  0.64916773  0.73121866  0.72495332    -0.01700
C1850       C  0.67276344  0.71231481  0.72287786    -0.09700
C1851       C  0.67219463  0.67674229  0.71889626    -0.18500
C1852       C  0.64781215  0.65876947  0.71748313     0.03900
C1853       C  0.62400316  0.67860159  0.71806808     0.18000
C1854       C  0.62493564  0.71460248  0.72123515    -0.20000
C1855       C  0.59931451  0.66209650  0.71724525    -0.21200
C1856       C  0.59767452  0.62614071  0.71773218    -0.19800
C1857       C  0.62070365  0.60594225  0.71868249     0.19400
C1858       C  0.64611320  0.62178216  0.71738847     0.01600
C1859       C  0.66866580  0.59989131  0.71763213    -0.14500
C1860       C  0.66614933  0.56438611  0.72178890    -0.12200
C1861       C  0.64114998  0.54971367  0.72550646     0.01100
C1862       C  0.61846873  0.57022084  0.72252089    -0.24400
H1863       H  0.69177257  0.72478250  0.72538391     0.09100
H1864       H  0.69111694  0.66379196  0.71830023     0.12700
H1865       H  0.60659377  0.72906976  0.72285019     0.11400
H1866       H  0.58111729  0.67707127  0.71746482     0.12600
H1867       H  0.57824514  0.61410722  0.71834059     0.11600
H1868       H  0.68856188  0.60963868  0.71567027     0.08700
H1869       H  0.68396254  0.54894112  0.72359585     0.12000
H1870       H  0.59897171  0.55885858  0.72481261     0.13800
C1871       C  0.58203225  0.78769583  0.78625704    -0.01700
C1872       C  0.57981137  0.75151463  0.78700475    -0.09700
C1873       C  0.55516143  0.73585787  0.79027307    -0.18500
C1874       C  0.53201709  0.75621261  0.79276205     0.03900
C1875       C  0.53511381  0.79273553  0.79470290     0.18000
C1876       C  0.55998984  0.80810096  0.79137269    -0.20000
C1877       C  0.51306430  0.81393044  0.79833391    -0.21200
C1878       C  0.48765507  0.80001090  0.79817085    -0.19800
C1879       C  0.48377349  0.76478109  0.79386011     0.19400
C1880       C  0.50588197  0.74209800  0.79176235     0.01600
C1881       C  0.50085322  0.70694504  0.78678324    -0.14500
C1882       C  0.47525450  0.69574805  0.78196160    -0.12200
C1883       C  0.45385274  0.71883836  0.78266983     0.01100
C1884       C  0.45800323  0.75273590  0.78988203    -0.24400
H1885       H  0.59676070  0.73526992  0.78339245     0.09100
H1886       H  0.55469413  0.70791026  0.78982696     0.12700
H1887       H  0.56184119  0.83615222  0.79126794     0.11400
H1888       H  0.51539341  0.84169136  0.80032890     0.12600
H1889       H  0.47088162  0.81732211  0.80007690     0.11600
H1890       H  0.51641970  0.68798518  0.78515781     0.08700
H1891       H  0.47234489  0.66922319  0.77679152     0.12000
H1892       H  0.44147000  0.77072045  0.79047518     0.13800
C1893       C  0.66314403  0.88058064  0.68241962    -0.01700
C1894       C  0.65076300  0.90891290  0.67251982    -0.09700
C1895       C  0.64598038  0.90884467  0.65042904    -0.18500
C1896       C  0.65315199  0.87997692  0.63772093     0.03900
C1897       C  0.66721078  0.85243242  0.64787100     0.18000
C1898       C  0.67214590  0.85314207  0.66986420    -0.20000
C1899       C  0.67507108  0.82328566  0.63630494    -0.21200
C1900       C  0.66872270  0.82029926  0.61490051    -0.19800
C1901       C  0.65431143  0.84635839  0.60450828     0.19400
C1902       C  0.64636035  0.87673613  0.61556545     0.01600
C1903       C  0.63167635  0.90195214  0.60395721    -0.14500
C1904       C  0.62585937  0.89742556  0.58216631    -0.12200
C1905       C  0.63435888  0.86763262  0.57136041     0.01100
C1906       C  0.64809366  0.84204820  0.58293891    -0.24400
H1907       H  0.64306897  0.92999092  0.68209193     0.09100
H1908       H  0.63567001  0.93096651  0.64389308     0.12700
H1909       H  0.68128207  0.83090571  0.67760075     0.11400
H1910       H  0.68582821  0.80231241  0.64396933     0.12600
H1911       H  0.67494032  0.79720072  0.60644210     0.11600
H1912       H  0.62474054  0.92556361  0.61124644     0.08700
H1913       H  0.61541028  0.91773308  0.57363837     0.12000
H1914       H  0.65465575  0.81863504  0.57496876     0.13800
C1915       C  0.60357873  0.94758362  0.75297876    -0.01700
C1916       C  0.59519755  0.95865715  0.77312763    -0.09700
C1917       C  0.57528766  0.98389431  0.77517532    -0.18500
C1918       C  0.56329634  0.99928986  0.75698364     0.03900
C1919       C  0.57306151  0.98937022  0.73659816     0.18000
C1920       C  0.59264523  0.96339714  0.73478742    -0.20000
C1921       C  0.56274312  0.00479567  0.71810119    -0.21200
C1922       C  0.54223180  0.02893559  0.71930205    -0.19800
C1923       C  0.53104394  0.03781561  0.73900406     0.19400
C1924       C  0.54155859  0.02335651  0.75817624     0.01600
C1925       C  0.52900174  0.03237754  0.77757750    -0.14500
C1926       C  0.50615760  0.05303693  0.77778728    -0.12200
C1927       C  0.49538523  0.06641439  0.75883861     0.01100
C1928       C  0.50854099  0.05968657  0.73954304    -0.24400
H1929       H  0.60332202  0.94670713  0.78737035     0.09100
H1930       H  0.56951185  0.99056814  0.79120520     0.12700
H1931       H  0.59918175  0.95504029  0.71913019     0.11400
H1932       H  0.57033592  0.99773768  0.70252266     0.12600
H1933       H  0.53446526  0.03987412  0.70462204     0.11600
H1934       H  0.53565711  0.02260125  0.79279269     0.08700
H1935       H  0.49633046  0.05775677  0.79288628     0.12000
H1936       H  0.50012440  0.06938405  0.72475610     0.13800
C1937       C  0.09631798  0.41146282  0.32592547    -0.01700
C1938       C  0.08746177  0.37861758  0.33232171    -0.09700
C1939       C  0.08395562  0.37077923  0.35399565    -0.18500
C1940       C  0.08926564  0.39573958  0.37002535     0.03900
C1941       C  0.09741652  0.42932063  0.36336030     0.18000
C1942       C  0.10073238  0.43681241  0.34161996    -0.20000
C1943       C  0.10287884  0.45510449  0.37842473    -0.21200
C1944       C  0.10154488  0.44784368  0.40014186    -0.19800
C1945       C  0.09463830  0.41464598  0.40733030     0.19400
C1946       C  0.08773550  0.38834997  0.39238239     0.01600
C1947       C  0.08059167  0.35541511  0.40047229    -0.14500
C1948       C  0.08234684  0.34813260  0.42221078    -0.12200
C1949       C  0.09075230  0.37342953  0.43671558     0.01100
C1950       C  0.09577273  0.40710668  0.42932857    -0.24400
H1951       H  0.08367347  0.35869078  0.32057601     0.09100
H1952       H  0.07749511  0.34479014  0.35766931     0.12700
H1953       H  0.10716870  0.46261228  0.33696111     0.11400
H1954       H  0.10887232  0.48088241  0.37336863     0.12600
H1955       H  0.10660858  0.46809361  0.41137610     0.11600
H1956       H  0.07438403  0.33437680  0.39038727     0.08700
H1957       H  0.07784306  0.32205832  0.42767147     0.12000
H1958       H  0.10223341  0.42679243  0.44049322     0.13800
C1959       C  0.91933490  0.20727328  0.51364507    -0.01700
C1960       C  0.92299662  0.22867121  0.49573485    -0.09700
C1961       C  0.94325294  0.25361379  0.49520465    -0.18500
C1962       C  0.96060210  0.25822636  0.51275115     0.03900
C1963       C  0.95585771  0.23783136  0.53133413     0.18000
C1964       C  0.93556518  0.21260052  0.53156674    -0.20000
C1965       C  0.97194831  0.24195029  0.54936403    -0.21200
C1966       C  0.99347806  0.26463537  0.54902858    -0.19800
C1967       C  0.99968375  0.28367004  0.53059844     0.19400
C1968       C  0.98300411  0.28130688  0.51231403     0.01600
C1969       C  0.99033866  0.30076072  0.49404169    -0.14500
C1970       C  0.01408988  0.31953853  0.49344671    -0.12200
C1971       C  0.03108798  0.32047733  0.51110438     0.01100
C1972       C  0.02333786  0.30339895  0.52990581    -0.24400
H1973       H  0.91081017  0.22517600  0.48167979     0.09100
H1974       H  0.94511530  0.26847065  0.48066719     0.12700
H1975       H  0.93277676  0.19648455  0.54562521     0.11400
H1976       H  0.96824129  0.22686112  0.56369918     0.12600
H1977       H  0.00589983  0.26642631  0.56308728     0.11600
H1978       H  0.97882414  0.30060030  0.47956291     0.08700
H1979       H  0.02001571  0.33184293  0.47860009     0.12000
H1980       H  0.03677177  0.30311722  0.54341267     0.13800
C1981       C  0.14925638  0.04610495  0.53355133    -0.01700
C1982       C  0.17273126  0.06539442  0.53510932    -0.09700
C1983       C  0.17191344  0.10104352  0.53873633    -0.18500
C1984       C  0.14738537  0.11862441  0.54034884     0.03900
C1985       C  0.12379967  0.09833092  0.54074506     0.18000
C1986       C  0.12499984  0.06230441  0.53784384    -0.20000
C1987       C  0.09898560  0.11435401  0.54225343    -0.21200
C1988       C  0.09690592  0.15025432  0.54156581    -0.19800
C1989       C  0.11960861  0.17088253  0.53951984     0.19400
C1990       C  0.14525547  0.15554915  0.53987090     0.01600
C1991       C  0.16751337  0.17777692  0.53819289    -0.14500
C1992       C  0.16431909  0.21317965  0.53421255    -0.12200
C1993       C  0.13894083  0.22751062  0.53197698     0.01100
C1994       C  0.11671179  0.20653994  0.53571358    -0.24400
H1995       H  0.19177741  0.05323310  0.53224625     0.09100
H1996       H  0.19073441  0.11429873  0.53893663     0.12700
H1997       H  0.10674280  0.04751448  0.53673964     0.11400
H1998       H  0.08097018  0.09900813  0.54282807     0.12600
H1999       H  0.07733022  0.16188540  0.54166289     0.11600
H2000       H  0.18763538  0.16843624  0.53896829     0.08700
H2001       H  0.18183449  0.22893534  0.53157992     0.12000
H2002       H  0.09699576  0.21760227  0.53436508     0.13800
C2003       C  0.28958318  0.55824366  0.49173485    -0.01700
C2004       C  0.27601008  0.54834259  0.47323706    -0.09700
C2005       C  0.25271279  0.52851128  0.47446566    -0.18500
C2006       C  0.24277200  0.51666612  0.49435188     0.03900
C2007       C  0.25684383  0.52657750  0.51306227     0.18000
C2008       C  0.27951551  0.54789721  0.51162363    -0.20000
C2009       C  0.24893418  0.51388364  0.53304564    -0.21200
C2010       C  0.22789478  0.49068965  0.53483965    -0.19800
C2011       C  0.21364754  0.48037329  0.51678071     0.19400
C2012       C  0.22021727  0.49405911  0.49633644     0.01600
C2013       C  0.20419765  0.48388422  0.47883106    -0.14500
C2014       C  0.18356692  0.45965998  0.48139519    -0.12200
C2015       C  0.17847609  0.44466313  0.50136206     0.01100
C2016       C  0.19329250  0.45564828  0.51901310    -0.24400
H2017       H  0.28376466  0.55549087  0.45769501     0.09100
H2018       H  0.24355972  0.52156396  0.45954326     0.12700
H2019       H  0.29040709  0.55454855  0.52595809     0.11400
H2020       H  0.25962124  0.52112465  0.54735135     0.12600
H2021       H  0.22283302  0.48054810  0.55048757     0.11600
H2022       H  0.20734776  0.49395900  0.46295004     0.08700
H2023       H  0.17240843  0.45140516  0.46755386     0.12000
H2024       H  0.18932626  0.44415689  0.53453658     0.13800
C2025       C  0.19157335  0.37540517  0.82474291    -0.01700
C2026       C  0.19307033  0.34813829  0.83965379    -0.09700
C2027       C  0.19604177  0.35446345  0.86138200    -0.18500
C2028       C  0.19735545  0.38862544  0.86924059     0.03900
C2029       C  0.19716630  0.41635478  0.85407854     0.18000
C2030       C  0.19456661  0.40955146  0.83202216    -0.20000
C2031       C  0.19852227  0.45071666  0.86112878    -0.21200
C2032       C  0.19853633  0.45817784  0.88284673    -0.19800
C2033       C  0.19728367  0.43146826  0.89807806     0.19400
C2034       C  0.19759382  0.39625936  0.89159417     0.01600
C2035       C  0.19695498  0.37035950  0.90779849    -0.14500
C2036       C  0.19392037  0.37912553  0.92935978    -0.12200
C2037       C  0.19156826  0.41384019  0.93542269     0.01100
C2038       C  0.19446993  0.43984098  0.91973888    -0.24400
H2039       H  0.19145276  0.32140206  0.83453989     0.09100
H2040       H  0.19650374  0.33198613  0.87165235     0.12700
H2041       H  0.19362010  0.43085743  0.82069035     0.11400
H2042       H  0.19871298  0.47202293  0.84977955     0.12600
H2043       H  0.19869249  0.48511481  0.88775839     0.11600
H2044       H  0.19793300  0.34304992  0.90429892     0.08700
H2045       H  0.19214153  0.35863501  0.94116450     0.12000
H2046       H  0.19341803  0.46692237  0.92431620     0.13800
C2047       C  0.10719039  0.45297717  0.75871489    -0.01700
C2048       C  0.09898591  0.47064715  0.74029083    -0.09700
C2049       C  0.07860209  0.49530178  0.74104474    -0.18500
C2050       C  0.06509293  0.50248538  0.76033620     0.03900
C2051       C  0.07388683  0.48494457  0.77911556     0.18000
C2052       C  0.09497790  0.46082608  0.77819847    -0.20000
C2053       C  0.06075043  0.49034716  0.79851538    -0.21200
C2054       C  0.03840418  0.51151366  0.79954498    -0.19800
C2055       C  0.02880863  0.52841067  0.78128342     0.19400
C2056       C  0.04246248  0.52510067  0.76152907     0.01600
C2057       C  0.03235333  0.54384766  0.74378823    -0.14500
C2058       C  0.00898092  0.56347575  0.74538456    -0.12200
C2059       C  0.99474306  0.56488083  0.76458003     0.01100
C2060       C  0.00513638  0.54776489  0.78255976    -0.24400
H2061       H  0.10785897  0.46443978  0.72501232     0.09100
H2062       H  0.07313579  0.50723507  0.72609967     0.12700
H2063       H  0.10080619  0.44659341  0.79240627     0.11400
H2064       H  0.06732357  0.47724615  0.81290717     0.12600
H2065       H  0.02828058  0.51424387  0.81471472     0.11600
H2066       H  0.04184752  0.54341523  0.72837287     0.08700
H2067       H  0.00132820  0.57624894  0.73124027     0.12000
H2068       H  0.99435796  0.54882366  0.79753420     0.13800
C2069       C  0.35571994  0.19993581  0.73658491    -0.01700
C2070       C  0.35631319  0.22332431  0.75367828    -0.09700
C2071       C  0.33721828  0.24956736  0.75562927    -0.18500
C2072       C  0.31671640  0.25358919  0.74038636     0.03900
C2073       C  0.31662157  0.23051575  0.72272310     0.18000
C2074       C  0.33583838  0.20402345  0.72105609    -0.20000
C2075       C  0.29700866  0.23355683  0.70700997    -0.21200
C2076       C  0.27701973  0.25832884  0.70872104    -0.19800
C2077       C  0.27592448  0.28064139  0.72627609     0.19400
C2078       C  0.29593511  0.27894532  0.74226587     0.01600
C2079       C  0.29353578  0.30169198  0.75985802    -0.14500
C2080       C  0.27135444  0.32327605  0.76215633    -0.12200
C2081       C  0.25124600  0.32387738  0.74676563     0.01100
C2082       C  0.25408676  0.30326620  0.72852915    -0.24400
H2083       H  0.37123725  0.22077079  0.76600649     0.09100
H2084       H  0.33889031  0.26609585  0.76938934     0.12700
H2085       H  0.33509993  0.18624801  0.70770434     0.11400
H2086       H  0.29687899  0.21625265  0.69342240     0.12600
H2087       H  0.26188964  0.25944115  0.69646161     0.11600
H2088       H  0.30781249  0.30218923  0.77263763     0.08700
H2089       H  0.26915649  0.33820746  0.77666383     0.12000
H2090       H  0.23813076  0.30268279  0.71693361     0.13800
C2091       C  0.13713186  0.05417674  0.72164549    -0.01700
C2092       C  0.16218337  0.06879940  0.71797455    -0.09700
C2093       C  0.16513833  0.10469258  0.71541295    -0.18500
C2094       C  0.14301229  0.12724328  0.71670973     0.03900
C2095       C  0.11745322  0.11198005  0.71871270     0.18000
C2096       C  0.11475564  0.07586306  0.72092666    -0.20000
C2097       C  0.09481688  0.13294369  0.71980926    -0.21200
C2098       C  0.09709140  0.16886900  0.72039027    -0.19800
C2099       C  0.12207316  0.18469773  0.71997479     0.19400
C2100       C  0.14536986  0.16424816  0.71742892     0.01600
C2101       C  0.17008392  0.18163705  0.71713725    -0.14500
C2102       C  0.17170408  0.21716288  0.72128056    -0.12200
C2103       C  0.14880996  0.23670104  0.72531566     0.01100
C2104       C  0.12396729  0.22062459  0.72351458    -0.24400
H2105       H  0.17979133  0.05270918  0.71830167     0.09100
H2106       H  0.18511760  0.11407089  0.71333518     0.12700
H2107       H  0.09518633  0.06484469  0.72344508     0.11400
H2108       H  0.07524160  0.12143914  0.72108370     0.12600
H2109       H  0.07924751  0.18429012  0.72210034     0.11600
H2110       H  0.18861156  0.16828014  0.71477383     0.08700
H2111       H  0.19112643  0.22911143  0.72227910     0.12000
H2112       H  0.10612789  0.23547151  0.72666420     0.13800
C2113       C  0.15362611  0.39583246  0.68579975    -0.01700
C2114       C  0.12823584  0.40266589  0.67772032    -0.09700
C2115       C  0.12380057  0.40539294  0.65581275    -0.18500
C2116       C  0.14471651  0.40044472  0.64115055     0.03900
C2117       C  0.17085157  0.39632917  0.64953154     0.18000
C2118       C  0.17512553  0.39451729  0.67174719    -0.20000
C2119       C  0.19231142  0.39171789  0.63568642    -0.21200
C2120       C  0.18822416  0.38858834  0.61385470    -0.19800
C2121       C  0.16258415  0.39009033  0.60532422     0.19400
C2122       C  0.14048873  0.39729656  0.61863946     0.01600
C2123       C  0.11508339  0.39924493  0.60890017    -0.14500
C2124       C  0.11171871  0.39230588  0.58709470    -0.12200
C2125       C  0.13346563  0.38303799  0.57448827     0.01100
C2126       C  0.15887364  0.38305779  0.58361485    -0.24400
H2127       H  0.11140629  0.40416644  0.68846472     0.09100
H2128       H  0.10359849  0.40966567  0.65085786     0.12700
H2129       H  0.19477116  0.38915079  0.67797360     0.11400
H2130       H  0.21228781  0.38907185  0.64186028     0.12600
H2131       H  0.20517679  0.38370854  0.60364324     0.11600
H2132       H  0.09737868  0.40529030  0.61778629     0.08700
H2133       H  0.09199327  0.39296284  0.58027107     0.12000
H2134       H  0.17592847  0.37683890  0.57376730     0.13800
C2135       C  0.43529353  0.14733283  0.56462371    -0.01700
C2136       C  0.44051889  0.11394493  0.57243354    -0.09700
C2137       C  0.44369727  0.10809076  0.59437233    -0.18500
C2138       C  0.44172594  0.13568084  0.60917515     0.03900
C2139       C  0.43932847  0.16990849  0.60087100     0.18000
C2140       C  0.43598416  0.17536411  0.57884223    -0.20000
C2141       C  0.43876950  0.19835406  0.61468863    -0.21200
C2142       C  0.43888247  0.19345504  0.63669626    -0.19800
C2143       C  0.43882428  0.15996190  0.64543490     0.19400
C2144       C  0.44065942  0.13054530  0.63182647     0.01600
C2145       C  0.43937922  0.09728929  0.64141338    -0.14500
C2146       C  0.43464628  0.09349930  0.66329155    -0.12200
C2147       C  0.43195972  0.12254898  0.67649433     0.01100
C2148       C  0.43522256  0.15570334  0.66759686    -0.24400
H2149       H  0.44034488  0.09194231  0.56173438     0.09100
H2150       H  0.44683925  0.08158848  0.59932511     0.12700
H2151       H  0.43244648  0.20140692  0.57284577     0.11400
H2152       H  0.43743153  0.22456596  0.60843370     0.12600
H2153       H  0.43767775  0.21600088  0.64693224     0.11600
H2154       H  0.44052949  0.07371539  0.63227243     0.08700
H2155       H  0.43230670  0.06761513  0.66985791     0.12000
H2156       H  0.43285713  0.17830397  0.67767550     0.13800
C2157       C  0.35966117  0.06724078  0.50780015    -0.01700
C2158       C  0.35701126  0.04672263  0.48951383    -0.09700
C2159       C  0.33677246  0.02190053  0.48800117    -0.18500
C2160       C  0.31842814  0.01670008  0.50486451     0.03900
C2161       C  0.32268366  0.03535977  0.52407836     0.18000
C2162       C  0.34298715  0.06041060  0.52532380    -0.20000
C2163       C  0.30592553  0.03001071  0.54163768    -0.21200
C2164       C  0.28418537  0.00784857  0.54020573    -0.19800
C2165       C  0.27828405  0.99098250  0.52104266     0.19400
C2166       C  0.29548458  0.99481890  0.50313047     0.01600
C2167       C  0.28798530  0.97841606  0.48389053    -0.14500
C2168       C  0.26377771  0.96082987  0.48220364    -0.12200
C2169       C  0.24669628  0.95779638  0.49974249     0.01100
C2170       C  0.25443166  0.97202806  0.51930524    -0.24400
H2171       H  0.36975514  0.05112187  0.47583427     0.09100
H2172       H  0.33562229  0.00771391  0.47324405     0.12700
H2173       H  0.34515239  0.07561601  0.53974029     0.11400
H2174       H  0.30928017  0.04373469  0.55645232     0.12600
H2175       H  0.27127342  0.00499195  0.55394910     0.11600
H2176       H  0.29970709  0.98033149  0.46953458     0.08700
H2177       H  0.25783435  0.95069431  0.46683202     0.12000
H2178       H  0.24086346  0.97068873  0.53273769     0.13800
C2179       C  0.48987733  0.21597289  0.48161078    -0.01700
C2180       C  0.51172687  0.20516315  0.49382924    -0.09700
C2181       C  0.53455667  0.22609369  0.49559063    -0.18500
C2182       C  0.53613046  0.25903615  0.48544891     0.03900
C2183       C  0.51403498  0.26960264  0.47292830     0.18000
C2184       C  0.49167485  0.24804359  0.47086338    -0.20000
C2185       C  0.51386850  0.30224940  0.46303676    -0.21200
C2186       C  0.53475549  0.32527936  0.46588337    -0.19800
C2187       C  0.55672574  0.31603540  0.47828490     0.19400
C2188       C  0.55823871  0.28245235  0.48775866     0.01600
C2189       C  0.58161818  0.27428833  0.49933219    -0.14500
C2190       C  0.60194828  0.29897369  0.50213097    -0.12200
C2191       C  0.59947425  0.33262639  0.49377329     0.01100
C2192       C  0.57692993  0.34064395  0.48161293    -0.24400
H2193       H  0.51098563  0.18076453  0.50245196     0.09100
H2194       H  0.55036638  0.21635317  0.50551820     0.12700
H2195       H  0.47503569  0.25717604  0.46144229     0.11400
H2196       H  0.49709149  0.31043831  0.45345434     0.12600
H2197       H  0.53360492  0.35068839  0.45844632     0.11600
H2198       H  0.58456138  0.24913881  0.50655923     0.08700
H2199       H  0.61911323  0.29219830  0.51165165     0.12000
H2200       H  0.57491737  0.36656106  0.47496738     0.13800
C2201       C  0.38519085  0.47231282  0.52539945    -0.01700
C2202       C  0.40966693  0.45691119  0.53005176    -0.09700
C2203       C  0.41194352  0.42087235  0.53174277    -0.18500
C2204       C  0.38960642  0.39914044  0.52891457     0.03900
C2205       C  0.36439595  0.41519064  0.52648271     0.18000
C2206       C  0.36246095  0.45142244  0.52446351    -0.20000
C2207       C  0.34143154  0.39490933  0.52509086    -0.21200
C2208       C  0.34307836  0.35889459  0.52499350    -0.19800
C2209       C  0.36779119  0.34236687  0.52548809     0.19400
C2210       C  0.39145609  0.36222263  0.52753323     0.01600
C2211       C  0.41599595  0.34447983  0.52653681    -0.14500
C2212       C  0.41694463  0.30889828  0.52252915    -0.12200
C2213       C  0.39358361  0.28969836  0.52024541     0.01100
C2214       C  0.36906405  0.30628419  0.52255594    -0.24400
H2215       H  0.42745108  0.47261490  0.53105730     0.09100
H2216       H  0.43150308  0.41075397  0.53483011     0.12700
H2217       H  0.34336624  0.46331534  0.52126350     0.11400
H2218       H  0.32210386  0.40699260  0.52361376     0.12600
H2219       H  0.32497257  0.34393054  0.52346675     0.11600
H2220       H  0.43480357  0.35766521  0.52754787     0.08700
H2221       H  0.43606535  0.29644393  0.52060226     0.12000
H2222       H  0.35095479  0.29152986  0.52030228     0.13800
C2223       C  0.31801558  0.20912705  0.47236754    -0.01700
C2224       C  0.29624437  0.18760026  0.47661994    -0.09700
C2225       C  0.27067704  0.19786499  0.47083326    -0.18500
C2226       C  0.26615024  0.23068533  0.46127554     0.03900
C2227       C  0.28851181  0.25145502  0.45597547     0.18000
C2228       C  0.31410888  0.24002095  0.46090740    -0.20000
C2229       C  0.28514832  0.28486703  0.44755028    -0.21200
C2230       C  0.26009655  0.29975896  0.44677664    -0.19800
C2231       C  0.23790447  0.28091135  0.45353059     0.19400
C2232       C  0.24033349  0.24519997  0.45900683     0.01600
C2233       C  0.21694863  0.22654404  0.46380303    -0.14500
C2234       C  0.19301459  0.24395477  0.46672613    -0.12200
C2235       C  0.19191782  0.28015199  0.46491752     0.01100
C2236       C  0.21379036  0.29819644  0.45677469    -0.24400
H2237       H  0.29885475  0.16328451  0.48510629     0.09100
H2238       H  0.25476034  0.18066478  0.47538329     0.12700
H2239       H  0.33085643  0.25678454  0.45740487     0.11400
H2240       H  0.30215834  0.30057431  0.44315401     0.12600
H2241       H  0.25824686  0.32667694  0.44191348     0.11600
H2242       H  0.21686226  0.19888006  0.46646718     0.08700
H2243       H  0.17602506  0.22942596  0.47249502     0.12000
H2244       H  0.21267279  0.32613103  0.45475297     0.13800
C2245       C  0.34400328  0.15466018  0.17638306    -0.01700
C2246       C  0.34018525  0.18345104  0.16299742    -0.09700
C2247       C  0.33722403  0.17948562  0.14097734    -0.18500
C2248       C  0.33876515  0.14636253  0.13144817     0.03900
C2249       C  0.34116635  0.11701903  0.14523715     0.18000
C2250       C  0.34324401  0.12136218  0.16751684    -0.20000
C2251       C  0.34309121  0.08366756  0.13662332    -0.21200
C2252       C  0.34422051  0.07892487  0.11464458    -0.19800
C2253       C  0.34319492  0.10737398  0.10068643     0.19400
C2254       C  0.33953776  0.14142928  0.10878515     0.01600
C2255       C  0.33808081  0.16910369  0.09383301    -0.14500
C2256       C  0.34191011  0.16338947  0.07196999    -0.12200
C2257       C  0.34732727  0.13006556  0.06430974     0.01100
C2258       C  0.34706601  0.10206495  0.07871718    -0.24400
H2259       H  0.34059066  0.20942879  0.16954631     0.09100
H2260       H  0.33500885  0.20297921  0.13177915     0.12700
H2261       H  0.34648896  0.09899265  0.17774716     0.11400
H2262       H  0.34473743  0.06116138  0.14697240     0.12600
H2263       H  0.34668814  0.05285162  0.10853688     0.11600
H2264       H  0.33479555  0.19558645  0.09857898     0.08700
H2265       H  0.34211735  0.18544040  0.06118270     0.12000
H2266       H  0.35104733  0.07611653  0.07289303     0.13800
C2267       C  0.28204759  0.21523343  0.25808594    -0.01700
C2268       C  0.26884149  0.21990894  0.23864461    -0.09700
C2269       C  0.24572621  0.24002936  0.23744740    -0.18500
C2270       C  0.23484491  0.25591405  0.25584456     0.03900
C2271       C  0.24704952  0.24856790  0.27579557     0.18000
C2272       C  0.27063768  0.22893608  0.27669438    -0.20000
C2273       C  0.23615456  0.26189300  0.29463963    -0.21200
C2274       C  0.21410322  0.28368967  0.29404256    -0.19800
C2275       C  0.20279627  0.29360452  0.27454233     0.19400
C2276       C  0.21290593  0.27963923  0.25513914     0.01600
C2277       C  0.20162831  0.29162798  0.23581930    -0.14500
C2278       C  0.18219057  0.31749458  0.23574249    -0.12200
C2279       C  0.17260903  0.33161328  0.25481333     0.01100
C2280       C  0.18240623  0.31881378  0.27423891    -0.24400
H2281       H  0.27722792  0.20953307  0.22407966     0.09100
H2282       H  0.23704293  0.24311289  0.22184471     0.12700
H2283       H  0.28058209  0.22508308  0.29185882     0.11400
H2284       H  0.24505187  0.25590703  0.30995533     0.12600
H2285       H  0.20650873  0.29398922  0.30891166     0.11600
H2286       H  0.20832525  0.28276486  0.22044019     0.08700
H2287       H  0.17506795  0.32732653  0.22056400     0.12000
H2288       H  0.17547331  0.33017693  0.28903167     0.13800
C2289       C  0.39544230  0.48374148  0.22885725    -0.01700
C2290       C  0.41809114  0.46313754  0.22649856    -0.09700
C2291       C  0.41588827  0.42767899  0.22224808    -0.18500
C2292       C  0.39076416  0.41139069  0.22101854     0.03900
C2293       C  0.36782384  0.43258718  0.22315279     0.18000
C2294       C  0.37036420  0.46853178  0.22639387    -0.20000
C2295       C  0.34254173  0.41750222  0.22332374    -0.21200
C2296       C  0.33961778  0.38160132  0.22289763    -0.19800
C2297       C  0.36185540  0.35998002  0.22150646     0.19400
C2298       C  0.38761719  0.37461788  0.21929836     0.01600
C2299       C  0.40918094  0.35165310  0.21636869    -0.14500
C2300       C  0.40567799  0.31575669  0.21789059    -0.12200
C2301       C  0.38069415  0.30164534  0.22248201     0.01100
C2302       C  0.35866569  0.32381828  0.22336402    -0.24400
H2303       H  0.43763316  0.47441078  0.22840326     0.09100
H2304       H  0.43421868  0.41339610  0.22114648     0.12700
H2305       H  0.35274272  0.48428245  0.22858829     0.11400
H2306       H  0.32496057  0.43349007  0.22486151     0.12600
H2307       H  0.31986494  0.37065200  0.22415971     0.11600
H2308       H  0.42909217  0.36069621  0.21337777     0.08700
H2309       H  0.42294997  0.29912420  0.21686407     0.12000
H2310       H  0.33916122  0.31299896  0.22646557     0.13800
C2311       C  0.42045611  0.07991764  0.23612516    -0.01700
C2312       C  0.42059090  0.05642171  0.25331033    -0.09700
C2313       C  0.44023788  0.03075379  0.25505318    -0.18500
C2314       C  0.46055627  0.02759352  0.23953456     0.03900
C2315       C  0.45945893  0.05019740  0.22155263     0.18000
C2316       C  0.43971334  0.07597810  0.22007596    -0.20000
C2317       C  0.47854619  0.04765354  0.20538032    -0.21200
C2318       C  0.49931434  0.02402619  0.20699178    -0.19800
C2319       C  0.50182593  0.00260535  0.22497075     0.19400
C2320       C  0.48235035  0.00372683  0.24144375     0.01600
C2321       C  0.48641855  0.98229222  0.25957249    -0.14500
C2322       C  0.50961789  0.96254238  0.26180623    -0.12200
C2323       C  0.52903369  0.96241643  0.24580377     0.01100
C2324       C  0.52459361  0.98163941  0.22713389    -0.24400
H2325       H  0.40595250  0.05859743  0.26590219     0.09100
H2326       H  0.43922636  0.01407254  0.26888192     0.12700
H2327       H  0.43973183  0.09359441  0.20653401     0.11400
H2328       H  0.47769544  0.06455549  0.19152547     0.12600
H2329       H  0.51403158  0.02332410  0.19437488     0.11600
H2330       H  0.47272774  0.98168505  0.27279054     0.08700
H2331       H  0.51304756  0.94862539  0.27661208     0.12000
H2332       H  0.53999341  0.98256470  0.21503347     0.13800
C2333       C  0.36855418  0.14163648  0.31640216    -0.01700
C2334       C  0.34812847  0.13764574  0.33131350    -0.09700
C2335       C  0.35394997  0.13123185  0.35287166    -0.18500
C2336       C  0.38057229  0.12888270  0.36013234     0.03900
C2337       C  0.40107620  0.13132647  0.34461221     0.18000
C2338       C  0.39489737  0.13752207  0.32306798    -0.20000
C2339       C  0.42772616  0.12953953  0.35080664    -0.21200
C2340       C  0.43461282  0.12753763  0.37226733    -0.19800
C2341       C  0.41502987  0.12699579  0.38810208     0.19400
C2342       C  0.38770195  0.12632737  0.38224417     0.01600
C2343       C  0.36875722  0.12510218  0.39886212    -0.14500
C2344       C  0.37649844  0.12819757  0.42016552    -0.12200
C2345       C  0.40328044  0.13179505  0.42573280     0.01100
C2346       C  0.42257348  0.12944185  0.40973846    -0.24400
H2347       H  0.32769117  0.14143900  0.32651141     0.09100
H2348       H  0.33725009  0.12966015  0.36357559     0.12700
H2349       H  0.41075811  0.14106374  0.31153639     0.11400
H2350       H  0.44341918  0.13105300  0.33899792     0.12600
H2351       H  0.45544118  0.12763278  0.37653359     0.11600
H2352       H  0.34775506  0.12342771  0.39587679     0.08700
H2353       H  0.36128077  0.13000164  0.43235170     0.12000
H2354       H  0.44328914  0.13266086  0.41393400     0.13800
C2355       C  0.67985308  0.36497721  0.32253726    -0.01700
C2356       C  0.67369573  0.33839722  0.33716920    -0.09700
C2357       C  0.67530414  0.34372268  0.35907266    -0.18500
C2358       C  0.68312913  0.37608500  0.36733118     0.03900
C2359       C  0.68876508  0.40333505  0.35254273     0.18000
C2360       C  0.68731157  0.39751526  0.33039790    -0.20000
C2361       C  0.69556555  0.43632127  0.35996538    -0.21200
C2362       C  0.69661093  0.44294623  0.38172549    -0.19800
C2363       C  0.69132068  0.41659929  0.39660205     0.19400
C2364       C  0.68502013  0.38257548  0.38971361     0.01600
C2365       C  0.68074623  0.35672197  0.40556978    -0.14500
C2366       C  0.68115347  0.36492923  0.42731754    -0.12200
C2367       C  0.68582147  0.39900699  0.43384932     0.01100
C2368       C  0.69167981  0.42438986  0.41839082    -0.24400
H2369       H  0.66753316  0.31301326  0.33172048     0.09100
H2370       H  0.66996309  0.32203373  0.36911716     0.12700
H2371       H  0.69172548  0.41843309  0.31931414     0.11400
H2372       H  0.69978220  0.45726937  0.34886504     0.12600
H2373       H  0.70150808  0.46894217  0.38696540     0.11600
H2374       H  0.67670983  0.33001577  0.40169122     0.08700
H2375       H  0.67666803  0.34492172  0.43897224     0.12000
H2376       H  0.69580152  0.45079276  0.42334515     0.13800
C2377       C  0.49622764  0.56781578  0.26186170    -0.01700
C2378       C  0.50974503  0.55781011  0.28043768    -0.09700
C2379       C  0.53262526  0.53713412  0.27940149    -0.18500
C2380       C  0.54217600  0.52448562  0.25965150     0.03900
C2381       C  0.52832729  0.53478233  0.24085038     0.18000
C2382       C  0.50608575  0.55691076  0.24208138    -0.20000
C2383       C  0.53592384  0.52155939  0.22099485    -0.21200
C2384       C  0.55631169  0.49738801  0.21942659    -0.19800
C2385       C  0.57019707  0.48646978  0.23759277     0.19400
C2386       C  0.56404115  0.50068649  0.25789762     0.01600
C2387       C  0.57974809  0.48983434  0.27549018    -0.14500
C2388       C  0.59968317  0.46458971  0.27313977    -0.12200
C2389       C  0.60432893  0.44904543  0.25331821     0.01100
C2390       C  0.58981775  0.46072831  0.23557500    -0.24400
H2391       H  0.50213516  0.56532545  0.29591887     0.09100
H2392       H  0.54168562  0.53009308  0.29438310     0.12700
H2393       H  0.49523465  0.56360686  0.22770065     0.11400
H2394       H  0.52544583  0.52913370  0.20661469     0.12600
H2395       H  0.56110199  0.48689695  0.20387055     0.11600
H2396       H  0.57692049  0.50024526  0.29127099     0.08700
H2397       H  0.61072244  0.45616133  0.28704567     0.12000
H2398       H  0.59357571  0.44926508  0.22008463     0.13800
C2399       C  0.74870492  0.32061389  0.24491657    -0.01700
C2400       C  0.76970884  0.32598983  0.25909915    -0.09700
C2401       C  0.79350427  0.30737011  0.25705755    -0.18500
C2402       C  0.79677336  0.28203862  0.24092825     0.03900
C2403       C  0.77577100  0.27800702  0.22596963     0.18000
C2404       C  0.75215320  0.29724639  0.22807065    -0.20000
C2405       C  0.77784100  0.25344695  0.20966081    -0.21200
C2406       C  0.79973089  0.23158680  0.20843966    -0.19800
C2407       C  0.82012374  0.23358234  0.22354098     0.19400
C2408       C  0.81935989  0.25935358  0.23970230     0.01600
C2409       C  0.84068062  0.26014745  0.25441877    -0.14500
C2410       C  0.86089551  0.23509874  0.25390598    -0.12200
C2411       C  0.86076981  0.20858112  0.23864013     0.01100
C2412       C  0.84069175  0.20888721  0.22306480    -0.24400
H2413       H  0.76719405  0.34335592  0.27249789     0.09100
H2414       H  0.80853839  0.31231567  0.26886765     0.12700
H2415       H  0.73568165  0.29239893  0.21735839     0.11400
H2416       H  0.76202478  0.25040852  0.19811374     0.12600
H2417       H  0.80030728  0.21222226  0.19595417     0.11600
H2418       H  0.84186791  0.27920710  0.26690980     0.08700
H2419       H  0.87615643  0.23579503  0.26604659     0.12000
H2420       H  0.84037116  0.18887325  0.21096071     0.13800
C2421       C  0.64403071  0.23338425  0.21839160    -0.01700
C2422       C  0.61861274  0.21981146  0.21500827    -0.09700
C2423       C  0.61496952  0.18431398  0.21164555    -0.18500
C2424       C  0.63677994  0.16119479  0.21174796     0.03900
C2425       C  0.66266760  0.17564518  0.21325174     0.18000
C2426       C  0.66603667  0.21139709  0.21640142    -0.20000
C2427       C  0.68500604  0.15411275  0.21300679    -0.21200
C2428       C  0.68217808  0.11827498  0.21278389    -0.19800
C2429       C  0.65694447  0.10315731  0.21297026     0.19400
C2430       C  0.63385097  0.12429716  0.21180577     0.01600
C2431       C  0.60886296  0.10758402  0.21232528    -0.14500
C2432       C  0.60694556  0.07191152  0.21601691    -0.12200
C2433       C  0.62979128  0.05166510  0.21871660     0.01100
C2434       C  0.65470181  0.06716048  0.21592118    -0.24400
H2435       H  0.60128388  0.23627500  0.21635919     0.09100
H2436       H  0.59476608  0.17562602  0.20991505     0.12700
H2437       H  0.68583062  0.22177996  0.21871146     0.11400
H2438       H  0.70479908  0.16502381  0.21387453     0.12600
H2439       H  0.69984603  0.10228569  0.21350936     0.11600
H2440       H  0.59040964  0.12155461  0.21110668     0.08700
H2441       H  0.58744914  0.06042698  0.21787023     0.12000
H2442       H  0.67250838  0.05174410  0.21806622     0.13800
C2443       C  0.45458301  0.22335256  0.27130200    -0.01700
C2444       C  0.47587215  0.20043960  0.26870717    -0.09700
C2445       C  0.50141599  0.20999700  0.27472896    -0.18500
C2446       C  0.50655007  0.24340166  0.28297958     0.03900
C2447       C  0.48467952  0.26600037  0.28642217     0.18000
C2448       C  0.45890158  0.25541222  0.28116397    -0.20000
C2449       C  0.48888962  0.29999105  0.29345169    -0.21200
C2450       C  0.51448024  0.31320725  0.29484332    -0.19800
C2451       C  0.53631392  0.29222175  0.29007364     0.19400
C2452       C  0.53274570  0.25633851  0.28582910     0.01600
C2453       C  0.55559732  0.23563269  0.28296445    -0.14500
C2454       C  0.58049365  0.25093657  0.28080580    -0.12200
C2455       C  0.58314296  0.28703440  0.28157255     0.01100
C2456       C  0.56144254  0.30733196  0.28772936    -0.24400
H2457       H  0.47291567  0.17532730  0.26136573     0.09100
H2458       H  0.51690102  0.19150364  0.27145132     0.12700
H2459       H  0.44250010  0.27330794  0.28317388     0.11400
H2460       H  0.47229130  0.31719191  0.29639825     0.12600
H2461       H  0.51714374  0.34036890  0.29872425     0.11600
H2462       H  0.55468711  0.20782061  0.28134841     0.08700
H2463       H  0.59724752  0.23472247  0.27659998     0.12000
H2464       H  0.56370644  0.33524601  0.28898621     0.13800
C2465       C  0.59439087  0.37284938  0.93551237    -0.01700
C2466       C  0.59296241  0.34502152  0.92115570    -0.09700
C2467       C  0.59074682  0.35064852  0.89928458    -0.18500
C2468       C  0.59012163  0.38458781  0.89084020     0.03900
C2469       C  0.59030621  0.41280813  0.90550400     0.18000
C2470       C  0.59221343  0.40672926  0.92763087    -0.20000
C2471       C  0.58944119  0.44696039  0.89794689    -0.21200
C2472       C  0.58939790  0.45377292  0.87616820    -0.19800
C2473       C  0.59032954  0.42660722  0.86141240     0.19400
C2474       C  0.59019983  0.39156798  0.86841046     0.01600
C2475       C  0.59109740  0.36524505  0.85262571    -0.14500
C2476       C  0.59348338  0.37354943  0.83090486    -0.12200
C2477       C  0.59488915  0.40820812  0.82429719     0.01100
C2478       C  0.59236609  0.43447354  0.83966139    -0.24400
H2479       H  0.59398450  0.31846047  0.92684030     0.09100
H2480       H  0.59010425  0.32784600  0.88940545     0.12700
H2481       H  0.59315123  0.42837856  0.93860374     0.11400
H2482       H  0.58937496  0.46858601  0.90894907     0.12600
H2483       H  0.58931298  0.48056966  0.87082364     0.11600
H2484       H  0.59071190  0.33799670  0.85656221     0.08700
H2485       H  0.59518248  0.35282217  0.81936799     0.12000
H2486       H  0.59284385  0.46149559  0.83474163     0.13800
C2487       C  0.62914315  0.39862900  0.07402951    -0.01700
C2488       C  0.60863073  0.40829199  0.08773758    -0.09700
C2489       C  0.61400041  0.41488973  0.10931309    -0.18500
C2490       C  0.64009538  0.41139458  0.11765546     0.03900
C2491       C  0.66092882  0.40406706  0.10312100     0.18000
C2492       C  0.65530967  0.39839025  0.08157589    -0.20000
C2493       C  0.68701461  0.39987991  0.11035608    -0.21200
C2494       C  0.69257523  0.39957044  0.13206252    -0.19800
C2495       C  0.67224272  0.40410555  0.14697395     0.19400
C2496       C  0.64600350  0.41207774  0.13995813     0.01600
C2497       C  0.62644748  0.41788143  0.15565391    -0.14500
C2498       C  0.63186988  0.41164948  0.17711184    -0.12200
C2499       C  0.65693213  0.40022853  0.18364737     0.01100
C2500       C  0.67750428  0.39825036  0.16877081    -0.24400
H2501       H  0.58833387  0.40877850  0.08209337     0.09100
H2502       H  0.59715585  0.42082106  0.11923880     0.12700
H2503       H  0.67127895  0.39139556  0.07078134     0.11400
H2504       H  0.70299876  0.39482217  0.09920677     0.12600
H2505       H  0.71268266  0.39424218  0.13722462     0.11600
H2506       H  0.60648171  0.42559418  0.15178658     0.08700
H2507       H  0.61584706  0.41365479  0.18859735     0.12000
H2508       H  0.69691919  0.38943571  0.17388147     0.13800
C2509       C  0.42203741  0.21010456  0.00877206    -0.01700
C2510       C  0.42459452  0.23318528  0.99153573    -0.09700
C2511       C  0.44370388  0.25969395  0.99176465    -0.18500
C2512       C  0.46096767  0.26410857  0.00939837     0.03900
C2513       C  0.45725160  0.24186903  0.02731646     0.18000
C2514       C  0.43809022  0.21526882  0.02681299    -0.20000
C2515       C  0.47330620  0.24547822  0.04540045    -0.21200
C2516       C  0.49389209  0.26954066  0.04572614    -0.19800
C2517       C  0.49915454  0.29048054  0.02791092     0.19400
C2518       C  0.48242084  0.28867667  0.00963635     0.01600
C2519       C  0.48891309  0.31009106  0.99198066    -0.14500
C2520       C  0.51217059  0.32997647  0.99182427    -0.12200
C2521       C  0.52930790  0.33014878  0.00940083     0.01100
C2522       C  0.52212243  0.31144039  0.02772798    -0.24400
H2523       H  0.41248358  0.22990141  0.97742031     0.09100
H2524       H  0.44483660  0.27588051  0.97772605     0.12700
H2525       H  0.43613577  0.19789071  0.04038541     0.11400
H2526       H  0.47036654  0.22890196  0.05922255     0.12600
H2527       H  0.50640232  0.27087967  0.05975466     0.11600
H2528       H  0.47723176  0.31052750  0.97759314     0.08700
H2529       H  0.51770978  0.34359071  0.97731641     0.12000
H2530       H  0.53571805  0.31063056  0.04112585     0.13800
C2531       C  0.64450663  0.05252576  0.02994593    -0.01700
C2532       C  0.66679806  0.07220009  0.03548563    -0.09700
C2533       C  0.66441102  0.10743356  0.04012381    -0.18500
C2534       C  0.63957991  0.12436137  0.03878636     0.03900
C2535       C  0.61679226  0.10369899  0.03456748     0.18000
C2536       C  0.61939319  0.06803121  0.03062702    -0.20000
C2537       C  0.59176310  0.11912296  0.03285804    -0.21200
C2538       C  0.58908990  0.15495862  0.03374403    -0.19800
C2539       C  0.61136068  0.17615643  0.03651185     0.19400
C2540       C  0.63677195  0.16119914  0.03995967     0.01600
C2541       C  0.65847208  0.18393393  0.04305971    -0.14500
C2542       C  0.65552986  0.21976567  0.04058738    -0.12200
C2543       C  0.63086928  0.23408450  0.03525489     0.01100
C2544       C  0.60861623  0.21223578  0.03444016    -0.24400
H2545       H  0.68637450  0.06061302  0.03536233     0.09100
H2546       H  0.68257566  0.12099330  0.04366652     0.12700
H2547       H  0.60202453  0.05298844  0.02631449     0.11400
H2548       H  0.57429214  0.10349081  0.02983655     0.12600
H2549       H  0.56960850  0.16623430  0.03138099     0.11600
H2550       H  0.67822540  0.17478075  0.04648360     0.08700
H2551       H  0.67300092  0.23604573  0.04156057     0.12000
H2552       H  0.58931425  0.22307305  0.03066777     0.13800
C2553       C  0.67803413  0.44897684  0.00266694    -0.01700
C2554       C  0.68486856  0.46045765  0.98215764    -0.09700
C2555       C  0.70512742  0.48503729  0.97913850    -0.18500
C2556       C  0.71891725  0.49949299  0.99670166     0.03900
C2557       C  0.71065058  0.48934369  0.01752362     0.18000
C2558       C  0.69085202  0.46384590  0.02028282    -0.20000
C2559       C  0.72248353  0.50430215  0.03548656    -0.21200
C2560       C  0.74276742  0.52860922  0.03327687    -0.19800
C2561       C  0.75242210  0.53780957  0.01306352     0.19400
C2562       C  0.74077479  0.52321653  0.99444934     0.01600
C2563       C  0.75232822  0.53182437  0.97451525    -0.14500
C2564       C  0.77493808  0.55293926  0.97323993    -0.12200
C2565       C  0.78632652  0.56727825  0.99161334     0.01100
C2566       C  0.77447705  0.56028591  0.01144164    -0.24400
H2567       H  0.67519959  0.44937683  0.96834247     0.09100
H2568       H  0.70958170  0.49224410  0.96288301     0.12700
H2569       H  0.68544012  0.45534682  0.03623492     0.11400
H2570       H  0.71607127  0.49702594  0.05140686     0.12600
H2571       H  0.75154110  0.53948241  0.04754500     0.11600
H2572       H  0.74505340  0.52134770  0.95971423     0.08700
H2573       H  0.78397019  0.55748839  0.95777852     0.12000
H2574       H  0.78357957  0.57041745  0.02579845     0.13800
C2575       C  0.84504671  0.12845293  0.57122574    -0.01700
C2576       C  0.84314898  0.09936988  0.58468964    -0.09700
C2577       C  0.84060633  0.10308210  0.60679707    -0.18500
C2578       C  0.84064328  0.13627732  0.61633161     0.03900
C2579       C  0.84181835  0.16573393  0.60253532     0.18000
C2580       C  0.84336506  0.16158989  0.58022523    -0.20000
C2581       C  0.84293430  0.19915683  0.61112563    -0.21200
C2582       C  0.84423420  0.20397589  0.63308097    -0.19800
C2583       C  0.84385748  0.17554151  0.64706579     0.19400
C2584       C  0.84104229  0.14132542  0.63900284     0.01600
C2585       C  0.83970525  0.11372878  0.65401598    -0.14500
C2586       C  0.84301583  0.11971123  0.67591813    -0.12200
C2587       C  0.84786205  0.15322895  0.68353815     0.01100
C2588       C  0.84738012  0.18110234  0.66904263    -0.24400
H2589       H  0.84451829  0.07347154  0.57811032     0.09100
H2590       H  0.83990083  0.07947096  0.61605754     0.12700
H2591       H  0.84533210  0.18421188  0.56998492     0.11400
H2592       H  0.84379522  0.22172397  0.60076032     0.12600
H2593       H  0.84607620  0.23015751  0.63915534     0.11600
H2594       H  0.83672043  0.08716755  0.64927650     0.08700
H2595       H  0.84329186  0.09775873  0.68677716     0.12000
H2596       H  0.85082824  0.20720822  0.67482287     0.13800
C2597       C  0.78935864  0.21662792  0.76814983    -0.01700
C2598       C  0.77062285  0.21216243  0.75185936    -0.09700
C2599       C  0.74752118  0.23259180  0.75107440    -0.18500
C2600       C  0.74244564  0.25846885  0.76659151     0.03900
C2601       C  0.76091796  0.26168501  0.78359285     0.18000
C2602       C  0.78376964  0.24076697  0.78430902    -0.20000
C2603       C  0.75713555  0.28680264  0.79938566    -0.21200
C2604       C  0.73613099  0.31008487  0.79813653    -0.19800
C2605       C  0.71809377  0.30862133  0.78121330     0.19400
C2606       C  0.72042532  0.28216247  0.76551413     0.01600
C2607       C  0.70110960  0.28149953  0.74910734    -0.14500
C2608       C  0.68130655  0.30704747  0.74777464    -0.12200
C2609       C  0.68008132  0.33400375  0.76265636     0.01100
C2610       C  0.69829199  0.33430348  0.77951228    -0.24400
H2611       H  0.77435669  0.19385388  0.73914163     0.09100
H2612       H  0.73442482  0.22832985  0.73775921     0.12700
H2613       H  0.79788588  0.24438514  0.79715548     0.11400
H2614       H  0.77102833  0.28917786  0.81248909     0.12600
H2615       H  0.73429938  0.32986725  0.81029151     0.11600
H2616       H  0.70119505  0.26204434  0.73680541     0.08700
H2617       H  0.66763608  0.30667549  0.73444934     0.12000
H2618       H  0.69757244  0.35533955  0.79094427     0.13800
C2619       C  0.88791028  0.29722802  0.72978871    -0.01700
C2620       C  0.91247188  0.31174915  0.72432023    -0.09700
C2621       C  0.91506325  0.34753822  0.72126132    -0.18500
C2622       C  0.89296453  0.36986491  0.72349907     0.03900
C2623       C  0.86767364  0.35444512  0.72696641     0.18000
C2624       C  0.86543416  0.31852691  0.73031938    -0.20000
C2625       C  0.84491648  0.37511808  0.72803634    -0.21200
C2626       C  0.84685535  0.41103675  0.72688811    -0.19800
C2627       C  0.87167137  0.42714580  0.72532923     0.19400
C2628       C  0.89512341  0.40685972  0.72339730     0.01600
C2629       C  0.91978245  0.42446216  0.72304791    -0.14500
C2630       C  0.92108954  0.46035314  0.72604027    -0.12200
C2631       C  0.89792312  0.47991840  0.72853144     0.01100
C2632       C  0.87326534  0.46337674  0.72718365    -0.24400
H2633       H  0.93005834  0.29564094  0.72359895     0.09100
H2634       H  0.93467538  0.35703639  0.71760973     0.12700
H2635       H  0.84627421  0.30724348  0.73413255     0.11400
H2636       H  0.82553489  0.36346467  0.73030362     0.12600
H2637       H  0.82891609  0.42635973  0.72829735     0.11600
H2638       H  0.93845810  0.41101653  0.72178647     0.08700
H2639       H  0.94033305  0.47275502  0.72711405     0.12000
H2640       H  0.85530316  0.47840539  0.72950701     0.13800
C2641       C  0.03218273  0.95909936  0.74169155    -0.01700
C2642       C  0.01379930  0.95761644  0.75844116    -0.09700
C2643       C  0.99008073  0.97645174  0.75752974    -0.18500
C2644       C  0.98437626  0.99844179  0.73998078     0.03900
C2645       C  0.00258476  0.99847709  0.72256189     0.18000
C2646       C  0.02602163  0.97857710  0.72346548    -0.20000
C2647       C  0.99817140  0.02007769  0.70491726    -0.21200
C2648       C  0.97687713  0.04299581  0.70462516    -0.19800
C2649       C  0.95931822  0.04481003  0.72191712     0.19400
C2650       C  0.96223749  0.02187297  0.73958220     0.01600
C2651       C  0.94351851  0.02458204  0.75640525    -0.14500
C2652       C  0.92390144  0.05041785  0.75627607    -0.12200
C2653       C  0.92220660  0.07433305  0.73940769     0.01100
C2654       C  0.93951014  0.07049682  0.72197634    -0.24400
H2655       H  0.01851535  0.94327560  0.77285813     0.09100
H2656       H  0.97728704  0.97467262  0.77129215     0.12700
H2657       H  0.04056167  0.98056906  0.71073585     0.11400
H2658       H  0.01183553  0.02013813  0.69154511     0.12600
H2659       H  0.97457208  0.06016642  0.69100357     0.11600
H2660       H  0.94394658  0.00766281  0.77015055     0.08700
H2661       H  0.91073861  0.05256824  0.76987994     0.12000
H2662       H  0.93819908  0.08844943  0.70863736     0.13800
C2663       C  0.96251648  0.21539817  0.77700725    -0.01700
C2664       C  0.96570896  0.24347089  0.79089060    -0.09700
C2665       C  0.99087964  0.25475057  0.79668099    -0.18500
C2666       C  0.01379165  0.23841835  0.78853777     0.03900
C2667       C  0.01045664  0.20780770  0.77623810     0.18000
C2668       C  0.98494239  0.19664122  0.77054615    -0.20000
C2669       C  0.03261139  0.18961792  0.76878318    -0.21200
C2670       C  0.05800467  0.20259078  0.77200404    -0.19800
C2671       C  0.06167678  0.23450168  0.78216820     0.19400
C2672       C  0.03969420  0.25255015  0.79102068     0.01600
C2673       C  0.04428304  0.28555230  0.80014176    -0.14500
C2674       C  0.06897740  0.30150485  0.79836281    -0.12200
C2675       C  0.08999740  0.28434804  0.78847394     0.01100
C2676       C  0.08678271  0.25004459  0.78172644    -0.24400
H2677       H  0.94869748  0.25782443  0.79665805     0.09100
H2678       H  0.99171063  0.27684871  0.80714772     0.12700
H2679       H  0.98264310  0.17423785  0.76030057     0.11400
H2680       H  0.03024246  0.16589138  0.75976377     0.12600
H2681       H  0.07474502  0.18862453  0.76536014     0.11600
H2682       H  0.02875385  0.30092501  0.80722597     0.08700
H2683       H  0.07126042  0.32811387  0.80356063     0.12000
H2684       H  0.10306439  0.23703734  0.77368911     0.13800
C2685       C  0.93809932  0.13148039  0.18461706    -0.01700
C2686       C  0.94272607  0.16517340  0.17704466    -0.09700
C2687       C  0.94592555  0.17154203  0.15518164    -0.18500
C2688       C  0.94455195  0.14419477  0.14017031     0.03900
C2689       C  0.94166177  0.10982893  0.14817144     0.18000
C2690       C  0.93854985  0.10384734  0.17013816    -0.20000
C2691       C  0.94057842  0.08169767  0.13415079    -0.21200
C2692       C  0.94103582  0.08700362  0.11221148    -0.19800
C2693       C  0.94236459  0.12059478  0.10373721     0.19400
C2694       C  0.94467268  0.14969773  0.11756200     0.01600
C2695       C  0.94545366  0.18308729  0.10813903    -0.14500
C2696       C  0.94186635  0.18743462  0.08620359    -0.12200
C2697       C  0.93820499  0.15875513  0.07286376     0.01100
C2698       C  0.93971580  0.12534878  0.08156956    -0.24400
H2699       H  0.94233918  0.18695249  0.18791128     0.09100
H2700       H  0.94862024  0.19826166  0.15049452     0.12700
H2701       H  0.93516480  0.07762483  0.17590943     0.11400
H2702       H  0.93860152  0.05541919  0.14019440     0.12600
H2703       H  0.93937405  0.06472328  0.10179814     0.11600
H2704       H  0.94748561  0.20646105  0.11737973     0.08700
H2705       H  0.94072160  0.21351148  0.07972169     0.12000
H2706       H  0.93645052  0.10312350  0.07133244     0.13800
C2707       C  0.82178982  0.22280970  0.98181702    -0.01700
C2708       C  0.80055712  0.20015167  0.98552695    -0.09700
C2709       C  0.77480609  0.20967583  0.98003706    -0.18500
C2710       C  0.76949197  0.24274884  0.97117503     0.03900
C2711       C  0.79131842  0.26486550  0.96645258     0.18000
C2712       C  0.81719956  0.25430347  0.97121078    -0.20000
C2713       C  0.78707827  0.29849495  0.95866018    -0.21200
C2714       C  0.76157676  0.31196558  0.95765615    -0.19800
C2715       C  0.73984196  0.29156326  0.96363424     0.19400
C2716       C  0.74330094  0.25591707  0.96884662     0.01600
C2717       C  0.72044469  0.23579583  0.97313277    -0.14500
C2718       C  0.69580241  0.25161847  0.97549363    -0.12200
C2719       C  0.69343902  0.28762760  0.97351837     0.01100
C2720       C  0.71498945  0.30716818  0.96617590    -0.24400
H2721       H  0.80370991  0.17541441  0.99340875     0.09100
H2722       H  0.75938405  0.19147937  0.98418165     0.12700
H2723       H  0.83356058  0.27195574  0.96821141     0.11400
H2724       H  0.80366352  0.31529067  0.95476602     0.12600
H2725       H  0.75894857  0.33891508  0.95310369     0.11600
H2726       H  0.72118881  0.20813994  0.97571086     0.08700
H2727       H  0.67910995  0.23604312  0.98077106     0.12000
H2728       H  0.71288357  0.33500514  0.96412712     0.13800
C2729       C  0.87126261  0.13811350  0.82442531    -0.01700
C2730       C  0.89559074  0.12444130  0.83121683    -0.09700
C2731       C  0.90158651  0.12152364  0.85299606    -0.18500
C2732       C  0.88363728  0.13347261  0.86871591     0.03900
C2733       C  0.85845965  0.14580484  0.86164776     0.18000
C2734       C  0.85241280  0.14746538  0.83973686    -0.20000
C2735       C  0.84013530  0.15879810  0.87635478    -0.21200
C2736       C  0.84680119  0.16187799  0.89775573    -0.19800
C2737       C  0.87183266  0.15158940  0.90505956     0.19400
C2738       C  0.89031452  0.13595193  0.89093529     0.01600
C2739       C  0.91501288  0.12510143  0.89959629    -0.14500
C2740       C  0.92174370  0.13204462  0.92094572    -0.12200
C2741       C  0.90410770  0.14997755  0.93416397     0.01100
C2742       C  0.87885365  0.15838259  0.92627238    -0.24400
H2743       H  0.91067320  0.11790129  0.81957434     0.09100
H2744       H  0.92100280  0.11177576  0.85699249     0.12700
H2745       H  0.83389673  0.15904708  0.83451496     0.11400
H2746       H  0.82089746  0.16804837  0.87112270     0.12600
H2747       H  0.83253142  0.17339275  0.90857210     0.11600
H2748       H  0.92974858  0.11201661  0.89010102     0.08700
H2749       H  0.94121565  0.12492015  0.92678149     0.12000
H2750       H  0.86481937  0.17157290  0.93658288     0.13800
C2751       C  0.75243866  0.96271398  0.01008319    -0.01700
C2752       C  0.76079746  0.97260474  0.03048294    -0.09700
C2753       C  0.78402974  0.99243861  0.03313762    -0.18500
C2754       C  0.79949398  0.00316718  0.01532091     0.03900
C2755       C  0.79199701  0.99040478  0.99495335     0.18000
C2756       C  0.76877627  0.97056724  0.99257282    -0.20000
C2757       C  0.80683815  0.99912962  0.97680816    -0.21200
C2758       C  0.82831769  0.02163578  0.97820434    -0.19800
C2759       C  0.83528804  0.03656401  0.99772142     0.19400
C2760       C  0.82124671  0.02727337  0.01666300     0.01600
C2761       C  0.82867099  0.04409036  0.03578294    -0.14500
C2762       C  0.84802031  0.07030693  0.03579348    -0.12200
C2763       C  0.86127593  0.07999780  0.01695757     0.01100
C2764       C  0.85537634  0.06205867  0.99813342    -0.24400
H2765       H  0.74841653  0.96708962  0.04422675     0.09100
H2766       H  0.78887232  0.00010241  0.04919656     0.12700
H2767       H  0.76239362  0.96302122  0.97672295     0.11400
H2768       H  0.80135389  0.98917735  0.96127348     0.12600
H2769       H  0.83893862  0.02844676  0.96372692     0.11600
H2770       H  0.81909672  0.03851599  0.05080870     0.08700
H2771       H  0.85228008  0.08359993  0.05059578     0.12000
H2772       H  0.86525739  0.06953536  0.98342810     0.13800
C2773       C  0.10619051  0.33676886  0.99528135    -0.01700
C2774       C  0.10447937  0.30996173  0.01040781    -0.09700
C2775       C  0.08490090  0.28411779  0.00875561    -0.18500
C2776       C  0.06620426  0.28453019  0.99187556     0.03900
C2777       C  0.06934092  0.31054575  0.97583773     0.18000
C2778       C  0.08907625  0.33625939  0.97772180    -0.20000
C2779       C  0.05185246  0.31195550  0.95854625    -0.21200
C2780       C  0.03023438  0.28964382  0.95748447    -0.19800
C2781       C  0.02547284  0.26529509  0.97368871     0.19400
C2782       C  0.04376538  0.26145702  0.99079556     0.01600
C2783       C  0.03796022  0.23585250  0.00646917    -0.14500
C2784       C  0.01419049  0.21666843  0.00586554    -0.12200
C2785       C  0.99545362  0.22229021  0.98966420     0.01100
C2786       C  0.00181493  0.24589631  0.97328646    -0.24400
H2787       H  0.11742534  0.31006255  0.02419548     0.09100
H2788       H  0.08422247  0.26493547  0.02132249     0.12700
H2789       H  0.09026638  0.35706169  0.96603676     0.11400
H2790       H  0.05436491  0.33131444  0.94610379     0.12600
H2791       H  0.01658406  0.29230553  0.94422575     0.11600
H2792       H  0.05103231  0.23088854  0.01974084     0.08700
H2793       H  0.00991017  0.19857861  0.01869373     0.12000
H2794       H  0.98772775  0.25021645  0.96047840     0.13800
C2795       C  0.89324948  0.30269126  0.03071574    -0.01700
C2796       C  0.86779027  0.31684478  0.03254580    -0.09700
C2797       C  0.86431526  0.35264848  0.03442377    -0.18500
C2798       C  0.88639824  0.37531801  0.03460894     0.03900
C2799       C  0.91216831  0.36032719  0.03507037     0.18000
C2800       C  0.91535794  0.32434392  0.03287458    -0.20000
C2801       C  0.93464469  0.38146348  0.03658146    -0.21200
C2802       C  0.93219996  0.41737113  0.03638628    -0.19800
C2803       C  0.90729166  0.43292993  0.03402862     0.19400
C2804       C  0.88395363  0.41218777  0.03333380     0.01600
C2805       C  0.85942132  0.42911164  0.02985480    -0.14500
C2806       C  0.85838784  0.46477232  0.02595390    -0.12200
C2807       C  0.88153933  0.48481466  0.02610631     0.01100
C2808       C  0.90577509  0.46898319  0.03101007    -0.24400
H2809       H  0.85043747  0.30042063  0.03108565     0.09100
H2810       H  0.84414923  0.36184432  0.03513493     0.12700
H2811       H  0.93510370  0.31329588  0.03182761     0.11400
H2812       H  0.95430737  0.37015496  0.03734182     0.12600
H2813       H  0.95003717  0.43304474  0.03703244     0.11600
H2814       H  0.84087895  0.41529904  0.02890662     0.08700
H2815       H  0.83945409  0.47661299  0.02219964     0.12000
H2816       H  0.92380679  0.48435549  0.03081847     0.13800
loop_ 
_geom_bond_atom_site_label_1 
_geom_bond_atom_site_label_2 
_geom_bond_distance 
_geom_bond_site_symmetry_2 
_ccdc_geom_bond_type 
Fe1          O17   2.050   1_556  S
Fe1           O7   2.071       .  S
Fe1          O14   2.080       .  S
Fe1           O6   2.031       .  S
Fe1          O12   1.939   1_556  S
Fe2           O5   2.036       .  S
Fe2           O9   2.091       .  S
Fe2          O13   2.044       .  S
Fe2          O18   2.084       .  S
Fe2          O12   1.945       .  S
Fe3          O21   2.118       .  S
Fe3           O8   2.085       .  S
Fe3          O15   2.099       .  S
Fe3           O4   2.122   1_554  S
Fe3          O12   1.946       .  S
O4           C11   1.281       .  A
O5           C19   1.270       .  A
O6           C11   1.266       .  A
O7           C10   1.270       .  A
O8           C20   1.271       .  A
O9           C22   1.271       .  A
C10          O15   1.275   1_556  A
C10        C2785   1.496       .  S
C11        C2741   1.484       .  S
O13          C16   1.268   1_554  A
O14          C16   1.273       .  A
C16        C2707   1.472       .  S
O17          C22   1.265       .  A
O18          C20   1.269       .  A
C19          O21   1.283       .  A
C19        C2697   1.474       .  S
C20        C2763   1.492       .  S
C22        C2795   1.472       .  S
Fe23         O39   2.051       .  S
Fe23         O29   2.070       .  S
Fe23         O36   2.073       .  S
Fe23         O28   2.039       .  S
Fe23         O34   1.941       .  S
Fe24         O27   2.046       .  S
Fe24         O31   2.089       .  S
Fe24         O35   2.052       .  S
Fe24         O40   2.077       .  S
Fe24         O34   1.946       .  S
Fe25         O43   2.119       .  S
Fe25         O30   2.085       .  S
Fe25         O37   2.097       .  S
Fe25         O26   2.121       .  S
Fe25         O34   1.949       .  S
O26          C33   1.280       .  A
O27          C41   1.269       .  A
O28          C33   1.265       .  A
O29          C32   1.270       .  A
O30          C42   1.273       .  A
O31          C44   1.272       .  A
C32          O37   1.276       .  A
C32        C2597   1.495       .  S
C33        C2729   1.475       .  S
O35          C38   1.268       .  A
O36          C38   1.272       .  A
C38        C2663   1.476       .  S
O39          C44   1.266       .  A
O40          C42   1.271       .  A
C41          O43   1.281       .  A
C41        C2587   1.485       .  S
C42        C2653   1.491       .  S
C44        C2619   1.475       .  S
Fe45         O61   2.040   1_556  S
Fe45         O51   2.058       .  S
Fe45         O58   2.082       .  S
Fe45         O50   2.021       .  S
Fe45         O56   1.937   1_556  S
Fe46         O49   2.024       .  S
Fe46         O53   2.102       .  S
Fe46         O57   2.041   1_554  S
Fe46         O62   2.084       .  S
Fe46         O56   1.933       .  S
Fe47         O65   2.125       .  S
Fe47         O52   2.091   1_554  S
Fe47         O59   2.101       .  S
Fe47         O48   2.120   1_554  S
Fe47         O56   1.943       .  S
O48          C55   1.283       .  A
O49          C63   1.267       .  A
O50          C55   1.266       .  A
O51          C54   1.266   1_556  A
O52          C64   1.274   1_556  A
O53          C66   1.275       .  A
C54          O59   1.276       .  A
C54        C2521   1.477       .  S
C55        C2465   1.480       .  S
O57          C60   1.265       .  A
O58          C60   1.271       .  A
C60        C2719   1.462       .  S
O61          C66   1.264       .  A
O62          C64   1.271       .  A
C63          O65   1.282       .  A
C63        C2487   1.472       .  S
C64        C2553   1.486       .  S
C66        C2543   1.481       .  S
Fe67         O83   2.043       .  S
Fe67         O73   2.061       .  S
Fe67         O80   2.084       .  S
Fe67         O72   2.027       .  S
Fe67         O78   1.946       .  S
Fe68         O71   2.034       .  S
Fe68         O75   2.095       .  S
Fe68         O79   2.045       .  S
Fe68         O84   2.072       .  S
Fe68         O78   1.940       .  S
Fe69         O87   2.113       .  S
Fe69         O74   2.095       .  S
Fe69         O81   2.099       .  S
Fe69         O70   2.110       .  S
Fe69         O78   1.952       .  S
O70          C77   1.280       .  A
O71          C85   1.269       .  A
O72          C77   1.266       .  A
O73          C76   1.267       .  A
O74          C86   1.273       .  A
O75          C88   1.272       .  A
C76          O81   1.275       .  A
C76        C2399   1.479       .  S
C77        C2355   1.485       .  S
O79          C82   1.267       .  A
O80          C82   1.272       .  A
C82        C2455   1.467       .  S
O83          C88   1.263       .  A
O84          C86   1.268       .  A
C85          O87   1.280       .  A
C85        C2499   1.466       .  S
C86        C2389   1.489       .  S
C88        C2421   1.479       .  S
Fe89        O105   2.055       .  S
Fe89         O95   2.081       .  S
Fe89        O102   2.083       .  S
Fe89         O94   2.037       .  S
Fe89        O100   1.945       .  S
Fe90         O93   2.044       .  S
Fe90         O97   2.097       .  S
Fe90        O101   2.045       .  S
Fe90        O106   2.089       .  S
Fe90        O100   1.941       .  S
Fe91        O109   2.119       .  S
Fe91         O96   2.080       .  S
Fe91        O103   2.087       .  S
Fe91         O92   2.119       .  S
Fe91        O100   1.948       .  S
O92          C99   1.279       .  A
O93         C107   1.269       .  A
O94          C99   1.265       .  A
O95          C98   1.271       .  A
O96         C108   1.272       .  A
O97         C110   1.275       .  A
C98         O103   1.274       .  A
C98        C2267   1.486       .  S
C99        C2333   1.476       .  S
O101        C104   1.267       .  A
O102        C104   1.272       .  A
C104       C2443   1.473       .  S
O105        C110   1.268       .  A
O106        C108   1.273       .  A
C107        O109   1.281       .  A
C107       C2245   1.481       .  S
C108       C2311   1.495       .  S
C110       C2301   1.480       .  S
Fe111       O127   2.045       .  S
Fe111       O117   2.068       .  S
Fe111       O124   2.069       .  S
Fe111       O116   2.029       .  S
Fe111       O122   1.937       .  S
Fe112       O115   2.047       .  S
Fe112       O119   2.096       .  S
Fe112       O123   2.058       .  S
Fe112       O128   2.082       .  S
Fe112       O122   1.943       .  S
Fe113       O131   2.115       .  S
Fe113       O118   2.083       .  S
Fe113       O125   2.100       .  S
Fe113       O114   2.127       .  S
Fe113       O122   1.947       .  S
O114        C121   1.281       .  A
O115        C129   1.270       .  A
O116        C121   1.265       .  A
O117        C120   1.269       .  A
O118        C130   1.273       .  A
O119        C132   1.274       .  A
C120        O125   1.275       .  A
C120       C2179   1.501       .  S
C121       C2345   1.477       .  S
O123        C126   1.268       .  A
O124        C126   1.270       .  A
C126       C2223   1.476       .  S
O127        C132   1.266       .  A
O128        C130   1.272       .  A
C129        O131   1.281       .  A
C129       C2135   1.482       .  S
C130       C2157   1.490       .  S
C132       C2213   1.471       .  S
Fe133       O149   2.047       .  S
Fe133       O139   2.055       .  S
Fe133       O146   2.077       .  S
Fe133       O138   2.033       .  S
Fe133       O144   1.951       .  S
Fe134       O137   2.033       .  S
Fe134       O141   2.106       .  S
Fe134       O145   2.045       .  S
Fe134       O150   2.069       .  S
Fe134       O144   1.940       .  S
Fe135       O153   2.118       .  S
Fe135       O140   2.098       .  S
Fe135       O147   2.104       .  S
Fe135       O136   2.131       .  S
Fe135       O144   1.950       .  S
O136        C143   1.286       .  A
O137        C151   1.268       .  A
O138        C143   1.271       .  A
O139        C142   1.263       .  A
O140        C152   1.275       .  A
O141        C154   1.278       .  A
C142        O147   1.273       .  A
C142       C2081   1.479       .  S
C143       C2025   1.489       .  S
O145        C148   1.262       .  A
O146        C148   1.266       .  A
C148       C2675   1.461       .  S
O149        C154   1.268       .  A
O150        C152   1.268       .  A
C151        O153   1.281       .  A
C151       C2113   1.474       .  S
C152       C2047   1.482       .  S
C154       C2103   1.481       .  S
Fe155       O171   2.046       .  S
Fe155       O161   2.046       .  S
Fe155       O168   2.072       .  S
Fe155       O160   2.033       .  S
Fe155       O166   1.955       .  S
Fe156       O159   2.039       .  S
Fe156       O163   2.086       .  S
Fe156       O167   2.054       .  S
Fe156       O172   2.056       .  S
Fe156       O166   1.950       .  S
Fe157       O175   2.113       .  S
Fe157       O162   2.099       .  S
Fe157       O169   2.108       .  S
Fe157       O158   2.110       .  S
Fe157       O166   1.958       .  S
O158        C165   1.282       .  A
O159        C173   1.271       .  A
O160        C165   1.270       .  A
O161        C164   1.262       .  A
O162        C174   1.273       .  A
O163        C176   1.273       .  A
C164        O169   1.274       .  A
C164       C1971   1.481       .  S
C165       C1949   1.476       .  S
O167        C170   1.265       .  A
O168        C170   1.267       .  A
C170       C2235   1.467       .  S
O171        C176   1.267       .  A
O172        C174   1.265       .  A
C173        O175   1.282       .  A
C173       C2125   1.480       .  S
C174       C2015   1.482       .  S
C176       C1993   1.475       .  S
Fe177       O193   2.040       .  S
Fe177       O183   2.069       .  S
Fe177       O190   2.089       .  S
Fe177       O182   2.027       .  S
Fe177       O188   1.942       .  S
Fe178       O181   2.029       .  S
Fe178       O185   2.099       .  S
Fe178       O189   2.047       .  S
Fe178       O194   2.084       .  S
Fe178       O188   1.937       .  S
Fe179       O197   2.122       .  S
Fe179       O184   2.091       .  S
Fe179       O191   2.097       .  S
Fe179       O180   2.127       .  S
Fe179       O188   1.943       .  S
O180        C187   1.284       .  A
O181        C195   1.266       .  A
O182        C187   1.268       .  A
O183        C186   1.267       .  A
O184        C196   1.274       .  A
O185        C198   1.276       .  A
C186        O191   1.273       .  A
C186       C1827   1.481       .  S
C187       C1805   1.487       .  S
O189        C192   1.266       .  A
O190        C192   1.271       .  A
C192       C1871   1.471       .  S
O193        C198   1.265       .  A
O194        C196   1.271       .  A
C195        O197   1.281       .  A
C195       C1893   1.472       .  S
C196       C1915   1.485       .  S
C198       C1849   1.475       .  S
Fe199       O215   2.039       .  S
Fe199       O205   2.057       .  S
Fe199       O212   2.084       .  S
Fe199       O204   2.023       .  S
Fe199       O210   1.949       .  S
Fe200       O203   2.028       .  S
Fe200       O207   2.095       .  S
Fe200       O211   2.047       .  S
Fe200       O216   2.067       .  S
Fe200       O210   1.935       .  S
Fe201       O219   2.128       .  S
Fe201       O206   2.096       .  S
Fe201       O213   2.106       .  S
Fe201       O202   2.124       .  S
Fe201       O210   1.946       .  S
O202        C209   1.285       .  A
O203        C217   1.268       .  A
O204        C209   1.269       .  A
O205        C208   1.264       .  A
O206        C218   1.273       .  A
O207        C220   1.276       .  A
C208        O213   1.274       .  A
C208       C1761   1.482       .  S
C209       C1695   1.470       .  S
O211        C214   1.263       .  A
O212        C214   1.269       .  A
C214       C1739   1.467       .  S
O215        C220   1.267       .  A
O216        C218   1.268       .  A
C217        O219   1.284       .  A
C217       C1905   1.491       .  S
C218       C1717   1.485       .  S
C220       C1783   1.475       .  S
Fe221       O237   2.053       .  S
Fe221       O227   2.065       .  S
Fe221       O234   2.069       .  S
Fe221       O226   2.031       .  S
Fe221       O232   1.938       .  S
Fe222       O225   2.050       .  S
Fe222       O229   2.088       .  S
Fe222       O233   2.051   1_554  S
Fe222       O238   2.081       .  S
Fe222       O232   1.933   1_554  S
Fe223       O241   2.114   1_556  S
Fe223       O228   2.086       .  S
Fe223       O235   2.105       .  S
Fe223       O224   2.124       .  S
Fe223       O232   1.942       .  S
O224        C231   1.280       .  A
O225        C239   1.270       .  A
O226        C231   1.264       .  A
O227        C230   1.269       .  A
O228        C240   1.274   1_556  A
O229        C242   1.274       .  A
C230        O235   1.276       .  A
C230       C1651   1.499       .  S
C231       C1629   1.477       .  S
O233        C236   1.268       .  A
O234        C236   1.269       .  A
C236       C1607   1.470       .  S
O237        C242   1.269   1_556  A
O238        C240   1.271       .  A
C239        O241   1.281       .  A
C239       C1575   1.485       .  S
C240       C1585   1.488       .  S
C242       C1673   1.475       .  S
Fe243       O259   2.058       .  S
Fe243       O249   2.079       .  S
Fe243       O256   2.085       .  S
Fe243       O248   2.038       .  S
Fe243       O254   1.949       .  S
Fe244       O247   2.047       .  S
Fe244       O251   2.086       .  S
Fe244       O255   2.049       .  S
Fe244       O260   2.076       .  S
Fe244       O254   1.941       .  S
Fe245       O263   2.111       .  S
Fe245       O250   2.096       .  S
Fe245       O257   2.101       .  S
Fe245       O246   2.114       .  S
Fe245       O254   1.950       .  S
O246        C253   1.279       .  A
O247        C261   1.270       .  A
O248        C253   1.266       .  A
O249        C252   1.270       .  A
O250        C262   1.274       .  A
O251        C264   1.272       .  A
C252        O257   1.275       .  A
C252       C1519   1.492       .  S
C253       C1641   1.474       .  S
O255        C258   1.267       .  A
O256        C258   1.273       .  A
C258       C1883   1.473       .  S
O259        C264   1.268       .  A
O260        C262   1.270       .  A
C261        O263   1.280       .  A
C261       C1475   1.485       .  S
C262       C1497   1.497       .  S
C264       C1541   1.477       .  S
Fe265       O281   2.040   1_556  S
Fe265       O271   2.044       .  S
Fe265       O278   2.068       .  S
Fe265       O270   2.025       .  S
Fe265       O276   1.957       .  S
Fe266       O269   2.038       .  S
Fe266       O273   2.107       .  S
Fe266       O277   2.044   1_554  S
Fe266       O282   2.064       .  S
Fe266       O276   1.950   1_554  S
Fe267       O285   2.095   1_556  S
Fe267       O272   2.106       .  S
Fe267       O279   2.108   1_556  S
Fe267       O268   2.115       .  S
Fe267       O276   1.962       .  S
O268        C275   1.284       .  A
O269        C283   1.267       .  A
O270        C275   1.270       .  A
O271        C274   1.260       .  A
O272        C284   1.276       .  A
O273        C286   1.278       .  A
C274        O279   1.273   1_556  A
C274       C1387   1.482   1_556  S
C275       C1377   1.478       .  S
O277        C280   1.261       .  A
O278        C280   1.264       .  A
C280       C1619   1.463       .  S
O281        C286   1.267       .  A
O282        C284   1.268   1_554  A
C283        O285   1.276       .  A
C283       C1443   1.462       .  S
C284       C1465   1.490       .  S
C286       C1421   1.478       .  S
Fe287       O303   2.041       .  S
Fe287       O293   2.047       .  S
Fe287       O300   2.086       .  S
Fe287       O292   2.030       .  S
Fe287       O298   1.960       .  S
Fe288       O291   2.029       .  S
Fe288       O295   2.093       .  S
Fe288       O299   2.041       .  S
Fe288       O304   2.052       .  S
Fe288       O298   1.943       .  S
Fe289       O307   2.110       .  S
Fe289       O294   2.101       .  S
Fe289       O301   2.102       .  S
Fe289       O290   2.114       .  S
Fe289       O298   1.966       .  S
O290        C297   1.286       .  A
O291        C305   1.269       .  A
O292        C297   1.273       .  A
O293        C296   1.260       .  A
O294        C306   1.272       .  A
O295        C308   1.275       .  A
C296        O301   1.271       .  A
C296       C1333   1.481       .  S
C297       C1255   1.476       .  S
O299        C302   1.259       .  A
O300        C302   1.266       .  A
C302       C1299   1.467       .  S
O303        C308   1.268       .  A
O304        C306   1.264       .  A
C305        O307   1.282       .  A
C305       C1431   1.485       .  S
C306       C1289   1.490       .  S
C308       C1355   1.474       .  S
Fe309       O325   2.045       .  S
Fe309       O315   2.070       .  S
Fe309       O322   2.082       .  S
Fe309       O314   2.027       .  S
Fe309       O320   1.938       .  S
Fe310       O313   2.049       .  S
Fe310       O317   2.102       .  S
Fe310       O321   2.049       .  S
Fe310       O326   2.089       .  S
Fe310       O320   1.943       .  S
Fe311       O329   2.119       .  S
Fe311       O316   2.083       .  S
Fe311       O323   2.099       .  S
Fe311       O312   2.121       .  S
Fe311       O320   1.948       .  S
O312        C319   1.279       .  A
O313        C327   1.270       .  A
O314        C319   1.264       .  A
O315        C318   1.271       .  A
O316        C328   1.272       .  A
O317        C330   1.274       .  A
C318        O323   1.276       .  A
C318       C1179   1.498       .  S
C319       C1211   1.479       .  S
O321        C324   1.268       .  A
O322        C324   1.273       .  A
C324       C1311   1.477       .  S
O325        C330   1.265       .  A
O326        C328   1.272       .  A
C327        O329   1.282       .  A
C327       C1145   1.485       .  S
C328       C1233   1.489       .  S
C330       C1201   1.473       .  S
Fe331       O347   2.052       .  S
Fe331       O337   2.073       .  S
Fe331       O344   2.077       .  S
Fe331       O336   2.034       .  S
Fe331       O342   1.955       .  S
Fe332       O335   2.051       .  S
Fe332       O339   2.096       .  S
Fe332       O343   2.052       .  S
Fe332       O348   2.088       .  S
Fe332       O342   1.949       .  S
Fe333       O351   2.103       .  S
Fe333       O338   2.086       .  S
Fe333       O345   2.093       .  S
Fe333       O334   2.111       .  S
Fe333       O342   1.955       .  S
O334        C341   1.278       .  A
O335        C349   1.271       .  A
O336        C341   1.265       .  A
O337        C340   1.268       .  A
O338        C350   1.272       .  A
O339        C352   1.274       .  A
C340        O345   1.273       .  A
C340       C1091   1.485       .  S
C341       C1223   1.471       .  S
O343        C346   1.268       .  A
O344        C346   1.271       .  A
C346       C1751   1.475       .  S
O347        C352   1.267       .  A
O348        C350   1.272       .  A
C349        O351   1.279       .  A
C349       C1057   1.483       .  S
C350       C1123   1.499       .  S
C352       C1101   1.482       .  S
Fe353       O369   2.057       .  S
Fe353       O359   2.078       .  S
Fe353       O366   2.083       .  S
Fe353       O358   2.031       .  S
Fe353       O364   1.945       .  S
Fe354       O357   2.044       .  S
Fe354       O361   2.092       .  S
Fe354       O365   2.040       .  S
Fe354       O370   2.087       .  S
Fe354       O364   1.936       .  S
Fe355       O373   2.123       .  S
Fe355       O360   2.081       .  S
Fe355       O367   2.089       .  S
Fe355       O356   2.128       .  S
Fe355       O364   1.942       .  S
O356        C363   1.281       .  A
O357        C371   1.269       .  A
O358        C363   1.265       .  A
O359        C362   1.269       .  A
O360        C372   1.272       .  A
O361        C374   1.273       .  A
C362        O367   1.274       .  A
C362       C1729   1.481       .  S
C363       C1035   1.481       .  S
O365        C368   1.267       .  A
O366        C368   1.273       .  A
C368       C1013   1.468       .  S
O369        C374   1.267       .  A
O370        C372   1.271       .  A
C371        O373   1.283       .  A
C371       C2575   1.484       .  S
C372       C1959   1.492       .  S
C374       C1113   1.474   1_545  S
Fe375       O391   2.054       .  S
Fe375       O381   2.073       .  S
Fe375       O388   2.076       .  S
Fe375       O380   2.038       .  S
Fe375       O386   1.937       .  S
Fe376       O379   2.042       .  S
Fe376       O383   2.093       .  S
Fe376       O387   2.044       .  S
Fe376       O392   2.083       .  S
Fe376       O386   1.937       .  S
Fe377       O395   2.109       .  S
Fe377       O382   2.086       .  S
Fe377       O389   2.101       .  S
Fe377       O378   2.123       .  S
Fe377       O386   1.948       .  S
O378        C385   1.280       .  A
O379        C393   1.268       .  A
O380        C385   1.264       .  A
O381        C384   1.272       .  A
O382        C394   1.275       .  A
O383        C396   1.274       .  A
C384        O389   1.276       .  A
C384       C1277   1.501       .  S
C385       C1047   1.479       .  S
O387        C390   1.266       .  A
O388        C390   1.272       .  A
C390       C1003   1.473       .  S
O391        C396   1.267       .  A
O392        C394   1.273       .  A
C393        O395   1.279       .  A
C393       C2685   1.480       .  S
C394       C2411   1.495       .  S
C396       C1189   1.479   1_545  S
Fe397       O413   2.041   1_565  S
Fe397       O403   2.060       .  S
Fe397       O410   2.087       .  S
Fe397       O402   2.020       .  S
Fe397       O408   1.943       .  S
Fe398       O401   2.025       .  S
Fe398       O405   2.113       .  S
Fe398       O409   2.041       .  S
Fe398       O414   2.092       .  S
Fe398       O408   1.935       .  S
Fe399       O417   2.126       .  S
Fe399       O404   2.091       .  S
Fe399       O411   2.095       .  S
Fe399       O400   2.118       .  S
Fe399       O408   1.946       .  S
O400        C407   1.283       .  A
O401        C415   1.268       .  A
O402        C407   1.267       .  A
O403        C406   1.266       .  A
O404        C416   1.273       .  A
O405        C418   1.277   1_565  A
C406        O411   1.274       .  A
C406       C2641   1.476       .  S
C407       C1365   1.480       .  S
O409        C412   1.265       .  A
O410        C412   1.271       .  A
C412        C947   1.464       .  S
O413        C418   1.265       .  A
O414        C416   1.272       .  A
C415        O417   1.283       .  A
C415        C969   1.478       .  S
C416       C1531   1.491       .  S
C418       C2091   1.485       .  S
Fe419       O435   2.039   1_565  S
Fe419       O425   2.068       .  S
Fe419       O432   2.086       .  S
Fe419       O424   2.026       .  S
Fe419       O430   1.941       .  S
Fe420       O423   2.025       .  S
Fe420       O427   2.098       .  S
Fe420       O431   2.042       .  S
Fe420       O436   2.080       .  S
Fe420       O430   1.931       .  S
Fe421       O439   2.116       .  S
Fe421       O426   2.089       .  S
Fe421       O433   2.094       .  S
Fe421       O422   2.119       .  S
Fe421       O430   1.938       .  S
O422        C429   1.284       .  A
O423        C437   1.266       .  A
O424        C429   1.267       .  A
O425        C428   1.266       .  A
O426        C438   1.274       .  A
O427        C440   1.276   1_565  A
C428        O433   1.273       .  A
C428       C2169   1.479       .  S
C429       C1267   1.483       .  S
O431        C434   1.265       .  A
O432        C434   1.271       .  A
C434       C1025   1.465       .  S
O435        C440   1.265       .  A
O436        C438   1.271       .  A
C437        O439   1.280       .  A
C437        C981   1.465       .  S
C438       C1079   1.488       .  S
C440       C1981   1.474       .  S
Fe441       O457   2.044   1_566  S
Fe441       O447   2.052       .  S
Fe441       O454   2.092       .  S
Fe441       O446   2.027       .  S
Fe441       O452   1.954   1_556  S
Fe442       O445   2.022       .  S
Fe442       O449   2.097       .  S
Fe442       O453   2.034   1_554  S
Fe442       O458   2.054       .  S
Fe442       O452   1.936       .  S
Fe443       O461   2.119       .  S
Fe443       O448   2.102   1_554  S
Fe443       O455   2.110       .  S
Fe443       O444   2.126   1_554  S
Fe443       O452   1.957       .  S
O444        C451   1.287       .  A
O445        C459   1.268       .  A
O446        C451   1.271       .  A
O447        C450   1.263   1_556  A
O448        C460   1.274       .  A
O449        C462   1.275   1_565  A
C450        O455   1.274       .  A
C450       C2751   1.486       .  S
C451       C1817   1.479       .  S
O453        C456   1.259       .  A
O454        C456   1.269       .  A
C456        C903   1.469   1_565  S
O457        C462   1.267       .  A
O458        C460   1.265   1_554  A
C459        O461   1.283       .  A
C459        C925   1.478       .  S
C460       C1663   1.486       .  S
C462       C2531   1.476       .  S
Fe463       O479   2.043   1_565  S
Fe463       O469   2.060       .  S
Fe463       O476   2.081   1_565  S
Fe463       O468   2.026       .  S
Fe463       O474   1.950       .  S
Fe464       O467   2.029       .  S
Fe464       O471   2.102       .  S
Fe464       O475   2.038       .  S
Fe464       O480   2.066       .  S
Fe464       O474   1.937       .  S
Fe465       O483   2.107       .  S
Fe465       O470   2.093       .  S
Fe465       O477   2.096       .  S
Fe465       O466   2.124       .  S
Fe465       O474   1.949       .  S
O466        C473   1.285       .  A
O467        C481   1.268       .  A
O468        C473   1.269       .  A
O469        C472   1.263       .  A
O470        C482   1.274       .  A
O471        C484   1.278   1_565  A
C472        O477   1.271       .  A
C472       C2323   1.478       .  S
C473       C1707   1.486       .  S
O475        C478   1.260       .  A
O476        C478   1.266   1_545  A
C478        C991   1.460   1_565  S
O479        C484   1.268       .  A
O480        C482   1.268       .  A
C481        O483   1.279       .  A
C481        C937   1.467       .  S
C482       C1167   1.480       .  S
C484       C2433   1.478       .  S
Fe485       O501   2.048       .  S
Fe485       O491   2.069       .  S
Fe485       O498   2.076       .  S
Fe485       O490   2.034       .  S
Fe485       O496   1.938       .  S
Fe486       O489   2.046       .  S
Fe486       O493   2.091       .  S
Fe486       O497   2.053   1_554  S
Fe486       O502   2.079       .  S
Fe486       O496   1.939   1_554  S
Fe487       O505   2.115   1_556  S
Fe487       O492   2.090       .  S
Fe487       O499   2.108       .  S
Fe487       O488   2.125       .  S
Fe487       O496   1.946       .  S
O488        C495   1.281       .  A
O489        C503   1.269       .  A
O490        C495   1.266       .  A
O491        C494   1.269       .  A
O492        C504   1.275   1_556  A
O493        C506   1.273       .  A
C494        O499   1.276       .  A
C494       C1453   1.504       .  S
C495        C881   1.476       .  S
O497        C500   1.267       .  A
O498        C500   1.270       .  A
C500        C915   1.473       .  S
O501        C506   1.267   1_556  A
O502        C504   1.272       .  A
C503        O505   1.281       .  A
C503       C2257   1.483       .  S
C504       C2509   1.492       .  S
C506       C1685   1.468   1_545  S
Fe507       O523   2.051       .  S
Fe507       O513   2.077       .  S
Fe507       O520   2.075       .  S
Fe507       O512   2.035       .  S
Fe507       O518   1.943       .  S
Fe508       O511   2.054       .  S
Fe508       O515   2.098       .  S
Fe508       O519   2.050       .  S
Fe508       O524   2.091       .  S
Fe508       O518   1.943       .  S
Fe509       O527   2.108       .  S
Fe509       O514   2.078       .  S
Fe509       O521   2.093       .  S
Fe509       O510   2.117       .  S
Fe509       O518   1.948       .  S
O510        C517   1.278       .  A
O511        C525   1.270       .  A
O512        C517   1.265       .  A
O513        C516   1.270       .  A
O514        C526   1.273       .  A
O515        C528   1.275       .  A
C516        O521   1.274       .  A
C516       C1927   1.489       .  S
C517        C893   1.476       .  S
O519        C522   1.267       .  A
O520        C522   1.270       .  A
C522        C959   1.472       .  S
O523        C528   1.268       .  A
O524        C526   1.274       .  A
C525        O527   1.279       .  A
C525       C2147   1.482       .  S
C526       C2069   1.495       .  S
C528       C1553   1.477   1_545  S
Fe529       O545   2.031   1_556  S
Fe529       O535   2.048       .  S
Fe529       O542   2.079       .  S
Fe529       O534   2.023       .  S
Fe529       O540   1.950   1_556  S
Fe530       O533   2.030       .  S
Fe530       O537   2.120       .  S
Fe530       O541   2.042   1_554  S
Fe530       O546   2.073       .  S
Fe530       O540   1.936       .  S
Fe531       O549   2.130       .  S
Fe531       O536   2.093   1_554  S
Fe531       O543   2.105       .  S
Fe531       O532   2.141   1_554  S
Fe531       O540   1.949       .  S
O532        C539   1.291       .  A
O533        C547   1.267       .  A
O534        C539   1.271       .  A
O535        C538   1.261   1_556  A
O536        C548   1.274       .  A
O537        C550   1.282       .  A
C538        O543   1.272       .  A
C538       C1597   1.482       .  S
C539       C2037   1.485       .  S
O541        C544   1.258       .  A
O542        C544   1.264       .  A
C544        C849   1.467       .  S
O545        C550   1.269       .  A
O546        C548   1.270   1_554  A
C547        O549   1.285       .  A
C547        C859   1.494       .  S
C548       C2773   1.483       .  S
C550       C1409   1.482       .  S
Fe551       O567   2.041       .  S
Fe551       O557   2.063       .  S
Fe551       O564   2.076       .  S
Fe551       O556   2.026       .  S
Fe551       O562   1.945       .  S
Fe552       O555   2.033       .  S
Fe552       O559   2.093       .  S
Fe552       O563   2.049       .  S
Fe552       O568   2.069       .  S
Fe552       O562   1.938       .  S
Fe553       O571   2.121       .  S
Fe553       O558   2.097       .  S
Fe553       O565   2.102       .  S
Fe553       O554   2.126       .  S
Fe553       O562   1.943       .  S
O554        C561   1.285       .  A
O555        C569   1.267       .  A
O556        C561   1.269       .  A
O557        C560   1.265       .  A
O558        C570   1.275       .  A
O559        C572   1.276       .  A
C560        O565   1.274       .  A
C560       C1245   1.485       .  S
C561       C1937   1.485       .  S
O563        C566   1.264       .  A
O564        C566   1.267       .  A
C566        C815   1.466       .  S
O567        C572   1.268       .  A
O568        C570   1.269       .  A
C569        O571   1.282       .  A
C569        C871   1.474       .  S
C570       C2279   1.483       .  S
C572       C1343   1.474       .  S
Fe573       O589   2.046   1_556  S
Fe573       O579   2.081       .  S
Fe573       O586   2.081       .  S
Fe573       O578   2.031       .  S
Fe573       O584   1.937   1_556  S
Fe574       O577   2.044       .  S
Fe574       O581   2.091       .  S
Fe574       O585   2.047       .  S
Fe574       O590   2.086       .  S
Fe574       O584   1.937       .  S
Fe575       O593   2.121       .  S
Fe575       O580   2.085       .  S
Fe575       O587   2.092       .  S
Fe575       O576   2.126   1_554  S
Fe575       O584   1.938       .  S
O576        C583   1.280       .  A
O577        C591   1.268       .  A
O578        C583   1.264       .  A
O579        C582   1.271       .  A
O580        C592   1.274       .  A
O581        C594   1.273       .  A
C582        O587   1.275   1_556  A
C582       C2565   1.488       .  S
C583        C805   1.477       .  S
O585        C588   1.267   1_554  A
O586        C588   1.273       .  A
C588        C837   1.473       .  S
O589        C594   1.266       .  A
O590        C592   1.272       .  A
C591        O593   1.281       .  A
C591       C1157   1.484       .  S
C592       C1399   1.489       .  S
C594       C2807   1.473       .  S
Fe595       O611   2.052       .  S
Fe595       O601   2.076       .  S
Fe595       O608   2.074       .  S
Fe595       O600   2.036       .  S
Fe595       O606   1.943       .  S
Fe596       O599   2.054       .  S
Fe596       O603   2.097       .  S
Fe596       O607   2.052       .  S
Fe596       O612   2.090       .  S
Fe596       O606   1.940       .  S
Fe597       O615   2.106       .  S
Fe597       O602   2.079       .  S
Fe597       O609   2.092       .  S
Fe597       O598   2.117       .  S
Fe597       O606   1.943       .  S
O598        C605   1.279       .  A
O599        C613   1.271       .  A
O600        C605   1.265       .  A
O601        C604   1.269       .  A
O602        C614   1.272       .  A
O603        C616   1.275       .  A
C604        O609   1.274       .  A
C604       C2059   1.490       .  S
C605        C793   1.475       .  S
O607        C610   1.268       .  A
O608        C610   1.270       .  A
C610        C771   1.474       .  S
O611        C616   1.267       .  A
O612        C614   1.273       .  A
C613        O615   1.279       .  A
C613       C1069   1.478       .  S
C614       C1839   1.493       .  S
C616       C2631   1.474       .  S
Fe617       O633   2.036       .  S
Fe617       O623   2.051       .  S
Fe617       O630   2.080       .  S
Fe617       O622   2.025       .  S
Fe617       O628   1.962       .  S
Fe618       O621   2.040       .  S
Fe618       O625   2.101       .  S
Fe618       O629   2.042       .  S
Fe618       O634   2.060       .  S
Fe618       O628   1.951       .  S
Fe619       O637   2.116       .  S
Fe619       O624   2.097       .  S
Fe619       O631   2.102       .  S
Fe619       O620   2.123       .  S
Fe619       O628   1.964       .  S
O620        C627   1.286       .  A
O621        C635   1.270       .  A
O622        C627   1.270       .  A
O623        C626   1.261       .  A
O624        C636   1.273       .  A
O625        C638   1.277       .  A
C626        O631   1.272       .  A
C626       C1509   1.481       .  S
C627       C2477   1.482       .  S
O629        C632   1.260       .  A
O630        C632   1.265       .  A
C632        C783   1.466       .  S
O633        C638   1.267       .  A
O634        C636   1.265       .  A
C635        O637   1.282       .  A
C635        C749   1.484       .  S
C636       C2609   1.482       .  S
C638       C1861   1.478       .  S
Fe639       O655   2.033       .  S
Fe639       O645   2.046       .  S
Fe639       O652   2.076       .  S
Fe639       O644   2.022       .  S
Fe639       O650   1.961       .  S
Fe640       O643   2.045       .  S
Fe640       O647   2.103       .  S
Fe640       O651   2.040       .  S
Fe640       O656   2.057       .  S
Fe640       O650   1.948       .  S
Fe641       O659   2.111       .  S
Fe641       O646   2.108       .  S
Fe641       O653   2.113       .  S
Fe641       O642   2.122       .  S
Fe641       O650   1.958       .  S
O642        C649   1.286       .  A
O643        C657   1.270       .  A
O644        C649   1.270       .  A
O645        C648   1.259       .  A
O646        C658   1.275       .  A
O647        C660   1.278       .  A
C648        O653   1.274       .  A
C648       C1135   1.483       .  S
C649       C2367   1.478       .  S
O651        C654   1.259       .  A
O652        C654   1.264       .  A
C654        C727   1.460       .  S
O655        C660   1.267       .  A
O656        C658   1.266       .  A
C657        O659   1.282       .  A
C657        C761   1.482       .  S
C658       C2191   1.491       .  S
C660       C1795   1.475       .  S
Fe661       O677   2.050       .  S
Fe661       O667   2.081       .  S
Fe661       O674   2.080       .  S
Fe661       O666   2.036       .  S
Fe661       O672   1.945       .  S
Fe662       O665   2.051       .  S
Fe662       O669   2.096       .  S
Fe662       O673   2.042       .  S
Fe662       O678   2.094       .  S
Fe662       O672   1.942       .  S
Fe663       O681   2.111       .  S
Fe663       O668   2.076       .  S
Fe663       O675   2.086       .  S
Fe663       O664   2.123       .  S
Fe663       O672   1.944       .  S
O664        C671   1.279       .  A
O665        C679   1.269       .  A
O666        C671   1.264       .  A
O667        C670   1.271       .  A
O668        C680   1.273       .  A
O669        C682   1.274       .  A
C670        O675   1.273       .  A
C670       C2003   1.483       .  S
C671        C705   1.480       .  S
O673        C676   1.267       .  A
O674        C676   1.273       .  A
C676        C739   1.473       .  S
O677        C682   1.266       .  A
O678        C680   1.274       .  A
C679        O681   1.279       .  A
C679       C1487   1.479       .  S
C680       C1773   1.495       .  S
C682       C2201   1.477       .  S
Fe683       O699   2.058       .  S
Fe683       O689   2.073       .  S
Fe683       O696   2.076       .  S
Fe683       O688   2.035       .  S
Fe683       O694   1.946       .  S
Fe684       O687   2.045       .  S
Fe684       O691   2.092       .  S
Fe684       O695   2.045       .  S
Fe684       O700   2.073       .  S
Fe684       O694   1.940       .  S
Fe685       O703   2.124       .  S
Fe685       O690   2.096       .  S
Fe685       O697   2.098       .  S
Fe685       O686   2.129       .  S
Fe685       O694   1.948       .  S
O686        C693   1.282       .  A
O687        C701   1.271       .  A
O688        C693   1.265       .  A
O689        C692   1.269       .  A
O690        C702   1.274       .  A
O691        C704   1.271       .  A
C692        O697   1.275       .  A
C692       C2377   1.485       .  S
C693        C717   1.481       .  S
O695        C698   1.268       .  A
O696        C698   1.273       .  A
C698        C827   1.469       .  S
O699        C704   1.267       .  A
O700        C702   1.269       .  A
C701        O703   1.284       .  A
C701       C1563   1.484       .  S
C702       C1321   1.499       .  S
C704       C2289   1.478       .  S
C705        C706   1.401       .  A
C705        C710   1.400       .  A
C706        C707   1.398       .  A
C706        H719   1.084       .  S
C707        C708   1.413       .  A
C707        H720   1.077       .  S
C708        C714   1.437       .  A
C708        C709   1.427       .  A
C709        C711   1.399       .  A
C709        C710   1.414       .  A
C710        H721   1.084       .  S
C711        C712   1.392       .  A
C711        H722   1.084       .  S
C712        C713   1.401       .  A
C712        H723   1.084       .  S
C713        C714   1.421       .  A
C713        C718   1.407       .  A
C714        C715   1.421       .  A
C715        C716   1.406       .  A
C715        H724   1.077       .  S
C716        C717   1.398       .  A
C716        H725   1.083       .  S
C717        C718   1.404       .  A
C718        H726   1.085       .  S
C727        C728   1.396       .  A
C727        C732   1.397       .  A
C728        C729   1.392       .  A
C728        H741   1.084       .  S
C729        C730   1.415       .  A
C729        H742   1.077       .  S
C730        C736   1.424       .  A
C730        C731   1.423       .  A
C731        C733   1.399       .  A
C731        C732   1.400       .  A
C732        H743   1.086       .  S
C733        C734   1.387       .  A
C733        H744   1.084       .  S
C734        C735   1.399       .  A
C734        H745   1.084       .  S
C735        C736   1.421       .  A
C735        C740   1.399       .  A
C736        C737   1.415       .  A
C737        C738   1.393       .  A
C737        H746   1.077       .  S
C738        C739   1.399       .  A
C738        H747   1.083       .  S
C739        C740   1.401       .  A
C740        H748   1.085       .  S
C749        C750   1.404       .  A
C749        C754   1.400       .  A
C750        C751   1.394       .  A
C750        H763   1.084       .  S
C751        C752   1.410       .  A
C751        H764   1.078       .  S
C752        C758   1.433       .  A
C752        C753   1.427       .  A
C753        C755   1.399       .  A
C753        C754   1.414       .  A
C754        H765   1.084       .  S
C755        C756   1.392       .  A
C755        H766   1.084       .  S
C756        C757   1.401       .  A
C756        H767   1.084       .  S
C757        C758   1.419       .  A
C757        C762   1.405       .  A
C758        C759   1.420       .  A
C759        C760   1.403       .  A
C759        H768   1.078       .  S
C760        C761   1.398       .  A
C760        H769   1.083       .  S
C761        C762   1.405       .  A
C762        H770   1.085       .  S
C771        C772   1.400       .  A
C771        C776   1.401       .  A
C772        C773   1.393       .  A
C772        H785   1.083       .  S
C773        C774   1.414       .  A
C773        H786   1.076       .  S
C774        C780   1.425       .  A
C774        C775   1.422       .  A
C775        C777   1.399       .  A
C775        C776   1.402       .  A
C776        H787   1.084       .  S
C777        C778   1.389       .  A
C777        H788   1.084       .  S
C778        C779   1.399       .  A
C778        H789   1.084       .  S
C779        C780   1.423       .  A
C779        C784   1.402       .  A
C780        C781   1.414       .  A
C781        C782   1.393       .  A
C781        H790   1.076       .  S
C782        C783   1.398       .  A
C782        H791   1.084       .  S
C783        C784   1.399       .  A
C784        H792   1.085       .  S
C793        C794   1.401       .  A
C793        C798   1.398       .  A
C794        C795   1.397       .  A
C794        H807   1.084       .  S
C795        C796   1.413       .  A
C795        H808   1.077       .  S
C796        C802   1.435       .  A
C796        C797   1.427       .  A
C797        C799   1.399       .  A
C797        C798   1.411       .  A
C798        H809   1.084       .  S
C799        C800   1.390       .  A
C799        H810   1.084       .  S
C800        C801   1.400       .  A
C800        H811   1.084       .  S
C801        C802   1.421       .  A
C801        C806   1.405       .  A
C802        C803   1.420       .  A
C803        C804   1.404       .  A
C803        H812   1.077       .  S
C804        C805   1.398       .  A
C804        H813   1.083       .  S
C805        C806   1.402       .  A
C806        H814   1.085       .  S
C815        C816   1.399       .  A
C815        C820   1.397       .  A
C816        C817   1.393       .  A
C816        H829   1.084       .  S
C817        C818   1.413       .  A
C817        H830   1.078       .  S
C818        C824   1.423       .  A
C818        C819   1.422       .  A
C819        C821   1.398       .  A
C819        C820   1.400       .  A
C820        H831   1.085       .  S
C821        C822   1.387       .  A
C821        H832   1.084       .  S
C822        C823   1.399       .  A
C822        H833   1.084       .  S
C823        C824   1.422       .  A
C823        C828   1.398       .  A
C824        C825   1.415       .  A
C825        C826   1.393       .  A
C825        H834   1.078       .  S
C826        C827   1.399       .  A
C826        H835   1.084       .  S
C827        C828   1.399       .  A
C828        H836   1.085       .  S
C837        C838   1.400       .  A
C837        C842   1.399       .  A
C838        C839   1.394   1_655  A
C838        H851   1.083       .  S
C839        C840   1.414       .  A
C839        H852   1.078       .  S
C840        C846   1.425       .  A
C840        C841   1.422   1_455  A
C841        C843   1.399       .  A
C841        C842   1.400       .  A
C842        H853   1.085       .  S
C843        C844   1.388   1_655  A
C843        H854   1.084       .  S
C844        C845   1.398       .  A
C844        H855   1.084       .  S
C845        C846   1.421       .  A
C845        C850   1.399       .  A
C846        C847   1.414       .  A
C847        C848   1.394       .  A
C847        H856   1.078       .  S
C848        C849   1.399       .  A
C848        H857   1.084       .  S
C849        C850   1.399       .  A
C850        H858   1.085       .  S
C859        C860   1.400       .  A
C859        C864   1.409       .  A
C860        C861   1.408       .  A
C860        H873   1.083       .  S
C861        C862   1.422       .  A
C861        H874   1.078       .  S
C862        C868   1.435       .  A
C862        C863   1.418       .  A
C863        C865   1.401       .  A
C863        C864   1.401       .  A
C864        H875   1.084       .  S
C865        C866   1.389       .  A
C865        H876   1.084       .  S
C866        C867   1.397       .  A
C866        H877   1.084       .  S
C867        C868   1.428       .  A
C867        C872   1.411       .  A
C868        C869   1.412       .  A
C869        C870   1.397       .  A
C869        H878   1.078       .  S
C870        C871   1.401       .  A
C870        H879   1.084       .  S
C871        C872   1.397       .  A
C872        H880   1.085       .  S
C881        C882   1.401       .  A
C881        C886   1.398       .  A
C882        C883   1.398       .  A
C882        H895   1.084       .  S
C883        C884   1.413       .  A
C883        H896   1.078       .  S
C884        C890   1.434       .  A
C884        C885   1.427       .  A
C885        C887   1.399       .  A
C885        C886   1.411       .  A
C886        H897   1.085       .  S
C887        C888   1.390       .  A
C887        H898   1.084       .  S
C888        C889   1.400       .  A
C888        H899   1.084       .  S
C889        C890   1.420       .  A
C889        C894   1.403       .  A
C890        C891   1.420       .  A
C891        C892   1.404       .  A
C891        H900   1.078       .  S
C892        C893   1.398       .  A
C892        H901   1.083       .  S
C893        C894   1.402       .  A
C894        H902   1.085       .  S
C903        C904   1.398       .  A
C903        C908   1.400   1_545  A
C904        C905   1.395       .  A
C904        H917   1.084       .  S
C905        C906   1.415       .  A
C905        H918   1.078       .  S
C906        C912   1.426       .  A
C906        C907   1.422   1_545  A
C907        C909   1.398       .  A
C907        C908   1.400       .  A
C908        H919   1.085       .  S
C909        C910   1.388       .  A
C909        H920   1.084       .  S
C910        C911   1.399   1_565  A
C910        H921   1.084       .  S
C911        C912   1.423       .  A
C911        C916   1.401       .  A
C912        C913   1.415       .  A
C913        C914   1.395       .  A
C913        H922   1.078       .  S
C914        C915   1.399       .  A
C914        H923   1.083       .  S
C915        C916   1.400       .  A
C916        H924   1.085       .  S
C925        C926   1.404       .  A
C925        C930   1.398       .  A
C926        C927   1.388       .  A
C926        H939   1.084       .  S
C927        C928   1.408       .  A
C927        H940   1.077       .  S
C928        C934   1.428       .  A
C928        C929   1.428       .  A
C929        C931   1.398       .  A
C929        C930   1.412       .  A
C930        H941   1.084       .  S
C931        C932   1.391       .  A
C931        H942   1.084       .  S
C932        C933   1.401       .  A
C932        H943   1.084       .  S
C933        C934   1.418       .  A
C933        C938   1.400       .  A
C934        C935   1.421       .  A
C935        C936   1.400       .  A
C935        H944   1.077       .  S
C936        C937   1.394       .  A
C936        H945   1.083       .  S
C937        C938   1.401       .  A
C938        H946   1.086       .  S
C947        C948   1.397       .  A
C947        C952   1.398   1_565  A
C948        C949   1.392       .  A
C948        H961   1.084       .  S
C949        C950   1.415   1_565  A
C949        H962   1.077       .  S
C950        C956   1.424       .  A
C950        C951   1.423       .  A
C951        C953   1.399       .  A
C951        C952   1.401       .  A
C952        H963   1.085       .  S
C953        C954   1.388       .  A
C953        H964   1.084       .  S
C954        C955   1.399       .  A
C954        H965   1.084       .  S
C955        C956   1.422       .  A
C955        C960   1.401       .  A
C956        C957   1.414       .  A
C957        C958   1.393       .  A
C957        H966   1.078   1_545  S
C958        C959   1.399       .  A
C958        H967   1.083       .  S
C959        C960   1.400       .  A
C960        H968   1.085       .  S
C969        C970   1.398       .  A
C969        C974   1.402       .  A
C970        C971   1.406       .  A
C970        H983   1.083       .  S
C971        C972   1.422       .  A
C971        H984   1.078       .  S
C972        C978   1.432       .  A
C972        C973   1.418       .  A
C973        C975   1.400       .  A
C973        C974   1.396       .  A
C974        H985   1.085       .  S
C975        C976   1.387       .  A
C975        H986   1.084       .  S
C976        C977   1.396       .  A
C976        H987   1.084       .  S
C977        C978   1.428       .  A
C977        C982   1.406       .  A
C978        C979   1.411       .  A
C979        C980   1.396       .  A
C979        H988   1.078       .  S
C980        C981   1.401       .  A
C980        H989   1.084       .  S
C981        C982   1.394       .  A
C982        H990   1.085       .  S
C991        C992   1.395   1_545  A
C991        C996   1.398       .  A
C992        C993   1.391   1_565  A
C992       H1005   1.084       .  S
C993        C994   1.415       .  A
C993       H1006   1.077   1_545  S
C994       C1000   1.423       .  A
C994        C995   1.423       .  A
C995        C997   1.400       .  A
C995        C996   1.401       .  A
C996       H1007   1.086       .  S
C997        C998   1.389       .  A
C997       H1008   1.084       .  S
C998        C999   1.400       .  A
C998       H1009   1.084       .  S
C999       C1000   1.421       .  A
C999       C1004   1.401       .  A
C1000      C1001   1.413       .  A
C1001      C1002   1.391       .  A
C1001      H1010   1.077       .  S
C1002      C1003   1.399       .  A
C1002      H1011   1.083       .  S
C1003      C1004   1.402       .  A
C1004      H1012   1.085       .  S
C1013      C1014   1.399       .  A
C1013      C1018   1.399       .  A
C1014      C1015   1.392       .  A
C1014      H1027   1.084       .  S
C1015      C1016   1.414   1_655  A
C1015      H1028   1.076   1_655  S
C1016      C1022   1.424       .  A
C1016      C1017   1.423   1_455  A
C1017      C1019   1.398   1_545  A
C1017      C1018   1.400       .  A
C1018      H1029   1.084       .  S
C1019      C1020   1.387   1_655  A
C1019      H1030   1.084       .  S
C1020      C1021   1.398       .  A
C1020      H1031   1.084       .  S
C1021      C1022   1.422   1_565  A
C1021      C1026   1.399       .  A
C1022      C1023   1.416       .  A
C1023      C1024   1.394       .  A
C1023      H1032   1.076       .  S
C1024      C1025   1.398   1_545  A
C1024      H1033   1.084       .  S
C1025      C1026   1.397       .  A
C1026      H1034   1.085       .  S
C1035      C1036   1.399       .  A
C1035      C1040   1.403       .  A
C1036      C1037   1.407       .  A
C1036      H1049   1.083       .  S
C1037      C1038   1.422       .  A
C1037      H1050   1.078       .  S
C1038      C1044   1.437       .  A
C1038      C1039   1.420       .  A
C1039      C1041   1.400       .  A
C1039      C1040   1.404       .  A
C1040      H1051   1.086       .  S
C1041      C1042   1.390       .  A
C1041      H1052   1.084       .  S
C1042      C1043   1.399       .  A
C1042      H1053   1.084       .  S
C1043      C1044   1.427       .  A
C1043      C1048   1.411       .  A
C1044      C1045   1.414       .  A
C1045      C1046   1.400       .  A
C1045      H1054   1.078       .  S
C1046      C1047   1.402       .  A
C1046      H1055   1.084       .  S
C1047      C1048   1.399       .  A
C1048      H1056   1.085       .  S
C1057      C1058   1.402       .  A
C1057      C1062   1.401       .  A
C1058      C1059   1.397       .  A
C1058      H1071   1.084       .  S
C1059      C1060   1.414       .  A
C1059      H1072   1.078       .  S
C1060      C1066   1.432       .  A
C1060      C1061   1.424       .  A
C1061      C1063   1.400       .  A
C1061      C1062   1.408       .  A
C1062      H1073   1.084       .  S
C1063      C1064   1.391       .  A
C1063      H1074   1.084       .  S
C1064      C1065   1.400       .  A
C1064      H1075   1.084       .  S
C1065      C1066   1.422       .  A
C1065      C1070   1.406       .  A
C1066      C1067   1.416       .  A
C1067      C1068   1.399       .  A
C1067      H1076   1.078       .  S
C1068      C1069   1.399       .  A
C1068      H1077   1.084       .  S
C1069      C1070   1.402       .  A
C1070      H1078   1.085       .  S
C1079      C1080   1.401       .  A
C1079      C1084   1.404       .  A
C1080      C1081   1.406       .  A
C1080      H1093   1.083       .  S
C1081      C1082   1.419       .  A
C1081      H1094   1.078       .  S
C1082      C1088   1.438       .  A
C1082      C1083   1.421       .  A
C1083      C1085   1.400       .  A
C1083      C1084   1.407       .  A
C1084      H1095   1.085       .  S
C1085      C1086   1.392       .  A
C1085      H1096   1.084       .  S
C1086      C1087   1.400       .  A
C1086      H1097   1.084       .  S
C1087      C1088   1.425       .  A
C1087      C1092   1.412       .  A
C1088      C1089   1.415       .  A
C1089      C1090   1.402       .  A
C1089      H1098   1.078       .  S
C1090      C1091   1.402   1_455  A
C1090      H1099   1.083   1_455  S
C1091      C1092   1.402   1_655  A
C1092      H1100   1.085   1_455  S
C1101      C1102   1.401       .  A
C1101      C1106   1.403       .  A
C1102      C1103   1.398       .  A
C1102      H1115   1.083       .  S
C1103      C1104   1.415       .  A
C1103      H1116   1.078       .  S
C1104      C1110   1.431       .  A
C1104      C1105   1.422       .  A
C1105      C1107   1.399       .  A
C1105      C1106   1.405       .  A
C1106      H1117   1.085       .  S
C1107      C1108   1.390       .  A
C1107      H1118   1.084       .  S
C1108      C1109   1.400       .  A
C1108      H1119   1.084       .  S
C1109      C1110   1.423       .  A
C1109      C1114   1.404       .  A
C1110      C1111   1.417       .  A
C1111      C1112   1.399       .  A
C1111      H1120   1.078       .  S
C1112      C1113   1.398       .  A
C1112      H1121   1.084       .  S
C1113      C1114   1.400       .  A
C1114      H1122   1.085       .  S
C1123      C1124   1.404       .  A
C1123      C1128   1.406       .  A
C1124      C1125   1.406       .  A
C1124      H1137   1.083       .  S
C1125      C1126   1.418       .  A
C1125      H1138   1.078       .  S
C1126      C1132   1.441       .  A
C1126      C1127   1.423       .  A
C1127      C1129   1.400       .  A
C1127      C1128   1.411       .  A
C1128      H1139   1.084       .  S
C1129      C1130   1.392       .  A
C1129      H1140   1.084       .  S
C1130      C1131   1.400       .  A
C1130      H1141   1.084       .  S
C1131      C1132   1.424       .  A
C1131      C1136   1.412       .  A
C1132      C1133   1.417       .  A
C1133      C1134   1.405       .  A
C1133      H1142   1.078       .  S
C1134      C1135   1.402       .  A
C1134      H1143   1.083       .  S
C1135      C1136   1.402       .  A
C1136      H1144   1.085       .  S
C1145      C1146   1.400       .  A
C1145      C1150   1.404       .  A
C1146      C1147   1.402       .  A
C1146      H1159   1.083       .  S
C1147      C1148   1.418       .  A
C1147      H1160   1.078       .  S
C1148      C1154   1.434       .  A
C1148      C1149   1.421       .  A
C1149      C1151   1.400       .  A
C1149      C1150   1.407       .  A
C1150      H1161   1.085       .  S
C1151      C1152   1.391       .  A
C1151      H1162   1.084       .  S
C1152      C1153   1.399       .  A
C1152      H1163   1.084       .  S
C1153      C1154   1.425       .  A
C1153      C1158   1.410       .  A
C1154      C1155   1.414       .  A
C1155      C1156   1.398       .  A
C1155      H1164   1.077       .  S
C1156      C1157   1.403       .  A
C1156      H1165   1.084       .  S
C1157      C1158   1.401       .  A
C1158      H1166   1.085       .  S
C1167      C1168   1.400       .  A
C1167      C1172   1.399       .  A
C1168      C1169   1.405       .  A
C1168      H1181   1.083       .  S
C1169      C1170   1.417       .  A
C1169      H1182   1.078       .  S
C1170      C1176   1.439       .  A
C1170      C1171   1.425       .  A
C1171      C1173   1.398       .  A
C1171      C1172   1.408       .  A
C1172      H1183   1.085       .  S
C1173      C1174   1.389       .  A
C1173      H1184   1.084       .  S
C1174      C1175   1.400       .  A
C1174      H1185   1.084       .  S
C1175      C1176   1.421       .  A
C1175      C1180   1.406       .  A
C1176      C1177   1.419       .  A
C1177      C1178   1.408       .  A
C1177      H1186   1.078       .  S
C1178      C1179   1.404       .  A
C1178      H1187   1.083       .  S
C1179      C1180   1.407       .  A
C1180      H1188   1.084       .  S
C1189      C1190   1.400       .  A
C1189      C1194   1.402       .  A
C1190      C1191   1.397       .  A
C1190      H1203   1.083       .  S
C1191      C1192   1.415       .  A
C1191      H1204   1.078       .  S
C1192      C1198   1.430       .  A
C1192      C1193   1.422       .  A
C1193      C1195   1.400       .  A
C1193      C1194   1.406       .  A
C1194      H1205   1.085       .  S
C1195      C1196   1.391       .  A
C1195      H1206   1.084       .  S
C1196      C1197   1.400       .  A
C1196      H1207   1.084       .  S
C1197      C1198   1.423       .  A
C1197      C1202   1.406       .  A
C1198      C1199   1.416       .  A
C1199      C1200   1.397       .  A
C1199      H1208   1.077       .  S
C1200      C1201   1.399       .  A
C1200      H1209   1.084       .  S
C1201      C1202   1.400       .  A
C1202      H1210   1.085       .  S
C1211      C1212   1.399       .  A
C1211      C1216   1.401       .  A
C1212      C1213   1.407       .  A
C1212      H1225   1.083       .  S
C1213      C1214   1.422       .  A
C1213      H1226   1.077       .  S
C1214      C1220   1.435       .  A
C1214      C1215   1.420       .  A
C1215      C1217   1.399       .  A
C1215      C1216   1.400       .  A
C1216      H1227   1.086       .  S
C1217      C1218   1.387       .  A
C1217      H1228   1.084       .  S
C1218      C1219   1.397       .  A
C1218      H1229   1.084       .  S
C1219      C1220   1.427       .  A
C1219      C1224   1.407       .  A
C1220      C1221   1.414       .  A
C1221      C1222   1.400       .  A
C1221      H1230   1.078       .  S
C1222      C1223   1.401       .  A
C1222      H1231   1.084       .  S
C1223      C1224   1.396       .  A
C1224      H1232   1.085       .  S
C1233      C1234   1.402       .  A
C1233      C1238   1.403       .  A
C1234      C1235   1.402       .  A
C1234      H1247   1.083       .  S
C1235      C1236   1.415       .  A
C1235      H1248   1.078       .  S
C1236      C1242   1.438       .  A
C1236      C1237   1.425       .  A
C1237      C1239   1.400       .  A
C1237      C1238   1.412       .  A
C1238      H1249   1.085       .  S
C1239      C1240   1.392       .  A
C1239      H1250   1.084       .  S
C1240      C1241   1.401       .  A
C1240      H1251   1.084       .  S
C1241      C1242   1.422       .  A
C1241      C1246   1.408   1_655  A
C1242      C1243   1.419       .  A
C1243      C1244   1.405   1_655  A
C1243      H1252   1.078       .  S
C1244      C1245   1.400       .  A
C1244      H1253   1.083       .  S
C1245      C1246   1.404       .  A
C1246      H1254   1.085       .  S
C1255      C1256   1.398       .  A
C1255      C1260   1.402       .  A
C1256      C1257   1.401       .  A
C1256      H1269   1.083       .  S
C1257      C1258   1.420       .  A
C1257      H1270   1.077       .  S
C1258      C1264   1.430       .  A
C1258      C1259   1.419       .  A
C1259      C1261   1.399       .  A
C1259      C1260   1.398       .  A
C1260      H1271   1.085       .  S
C1261      C1262   1.387       .  A
C1261      H1272   1.084       .  S
C1262      C1263   1.397       .  A
C1262      H1273   1.084       .  S
C1263      C1264   1.425       .  A
C1263      C1268   1.405       .  A
C1264      C1265   1.411       .  A
C1265      C1266   1.394       .  A
C1265      H1274   1.077       .  S
C1266      C1267   1.406       .  A
C1266      H1275   1.083       .  S
C1267      C1268   1.398       .  A
C1268      H1276   1.084       .  S
C1277      C1278   1.406   1_655  A
C1277      C1282   1.405       .  A
C1278      C1279   1.413       .  A
C1278      H1291   1.083       .  S
C1279      C1280   1.420       .  A
C1279      H1292   1.079       .  S
C1280      C1286   1.442   1_545  A
C1280      C1281   1.422       .  A
C1281      C1283   1.399   1_545  A
C1281      C1282   1.403   1_455  A
C1282      H1293   1.084       .  S
C1283      C1284   1.386       .  A
C1283      H1294   1.084   1_455  S
C1284      C1285   1.397       .  A
C1284      H1295   1.084       .  S
C1285      C1286   1.424       .  A
C1285      C1290   1.404       .  A
C1286      C1287   1.420   1_565  A
C1287      C1288   1.412   1_545  A
C1287      H1296   1.079       .  S
C1288      C1289   1.404       .  A
C1288      H1297   1.083       .  S
C1289      C1290   1.400       .  A
C1290      H1298   1.085       .  S
C1299      C1300   1.399       .  A
C1299      C1304   1.399       .  A
C1300      C1301   1.395       .  A
C1300      H1313   1.084       .  S
C1301      C1302   1.415       .  A
C1301      H1314   1.078       .  S
C1302      C1308   1.426       .  A
C1302      C1303   1.421       .  A
C1303      C1305   1.398       .  A
C1303      C1304   1.401       .  A
C1304      H1315   1.085       .  S
C1305      C1306   1.389   1_455  A
C1305      H1316   1.084       .  S
C1306      C1307   1.399       .  A
C1306      H1317   1.084       .  S
C1307      C1308   1.422   1_655  A
C1307      C1312   1.402       .  A
C1308      C1309   1.414       .  A
C1309      C1310   1.394   1_455  A
C1309      H1318   1.078       .  S
C1310      C1311   1.401       .  A
C1310      H1319   1.083       .  S
C1311      C1312   1.401       .  A
C1312      H1320   1.085       .  S
C1321      C1322   1.404       .  A
C1321      C1326   1.406       .  A
C1322      C1323   1.409       .  A
C1322      H1335   1.083       .  S
C1323      C1324   1.420       .  A
C1323      H1336   1.078       .  S
C1324      C1330   1.440       .  A
C1324      C1325   1.421       .  A
C1325      C1327   1.400       .  A
C1325      C1326   1.406       .  A
C1326      H1337   1.084       .  S
C1327      C1328   1.389       .  A
C1327      H1338   1.084       .  S
C1328      C1329   1.398       .  A
C1328      H1339   1.084       .  S
C1329      C1330   1.425       .  A
C1329      C1334   1.409       .  A
C1330      C1331   1.417       .  A
C1331      C1332   1.406       .  A
C1331      H1340   1.078       .  S
C1332      C1333   1.402       .  A
C1332      H1341   1.083       .  S
C1333      C1334   1.400       .  A
C1334      H1342   1.085       .  S
C1343      C1344   1.400       .  A
C1343      C1348   1.401       .  A
C1344      C1345   1.395       .  A
C1344      H1357   1.083       .  S
C1345      C1346   1.415       .  A
C1345      H1358   1.077       .  S
C1346      C1352   1.426       .  A
C1346      C1347   1.421       .  A
C1347      C1349   1.399       .  A
C1347      C1348   1.401       .  A
C1348      H1359   1.085       .  S
C1349      C1350   1.388       .  A
C1349      H1360   1.084       .  S
C1350      C1351   1.399       .  A
C1350      H1361   1.084       .  S
C1351      C1352   1.423       .  A
C1351      C1356   1.402       .  A
C1352      C1353   1.414       .  A
C1353      C1354   1.393       .  A
C1353      H1362   1.076       .  S
C1354      C1355   1.400       .  A
C1354      H1363   1.084       .  S
C1355      C1356   1.400       .  A
C1356      H1364   1.084       .  S
C1365      C1366   1.397       .  A
C1365      C1370   1.406       .  A
C1366      C1367   1.400       .  A
C1366      H1379   1.083       .  S
C1367      C1368   1.420       .  A
C1367      H1380   1.077       .  S
C1368      C1374   1.428       .  A
C1368      C1369   1.418       .  A
C1369      C1371   1.401       .  A
C1369      C1370   1.399       .  A
C1370      H1381   1.085       .  S
C1371      C1372   1.389       .  A
C1371      H1382   1.084       .  S
C1372      C1373   1.398       .  A
C1372      H1383   1.084       .  S
C1373      C1374   1.426       .  A
C1373      C1378   1.408       .  A
C1374      C1375   1.409       .  A
C1375      C1376   1.390       .  A
C1375      H1384   1.077       .  S
C1376      C1377   1.403       .  A
C1376      H1385   1.084       .  S
C1377      C1378   1.399       .  A
C1378      H1386   1.084       .  S
C1387      C1388   1.400       .  A
C1387      C1392   1.402   1_554  A
C1388      C1389   1.407       .  A
C1388      H1401   1.083       .  S
C1389      C1390   1.420   1_455  A
C1389      H1402   1.078       .  S
C1390      C1396   1.438       .  A
C1390      C1391   1.422   1_554  A
C1391      C1393   1.400       .  A
C1391      C1392   1.406   1_655  A
C1392      H1403   1.085       .  S
C1393      C1394   1.390       .  A
C1393      H1404   1.084       .  S
C1394      C1395   1.399       .  A
C1394      H1405   1.084       .  S
C1395      C1396   1.425   1_556  A
C1395      C1400   1.410       .  A
C1396      C1397   1.415       .  A
C1397      C1398   1.403       .  A
C1397      H1406   1.078       .  S
C1398      C1399   1.404       .  A
C1398      H1407   1.083       .  S
C1399      C1400   1.402   1_554  A
C1400      H1408   1.085       .  S
C1409      C1410   1.400       .  A
C1409      C1414   1.404       .  A
C1410      C1411   1.401       .  A
C1410      H1423   1.083       .  S
C1411      C1412   1.418       .  A
C1411      H1424   1.078       .  S
C1412      C1418   1.430       .  A
C1412      C1413   1.420       .  A
C1413      C1415   1.400       .  A
C1413      C1414   1.400       .  A
C1414      H1425   1.085       .  S
C1415      C1416   1.389       .  A
C1415      H1426   1.084       .  S
C1416      C1417   1.398       .  A
C1416      H1427   1.084       .  S
C1417      C1418   1.425       .  A
C1417      C1422   1.406       .  A
C1418      C1419   1.412       .  A
C1419      C1420   1.395       .  A
C1419      H1428   1.078       .  S
C1420      C1421   1.402       .  A
C1420      H1429   1.084       .  S
C1421      C1422   1.400       .  A
C1422      H1430   1.085       .  S
C1431      C1432   1.400       .  A
C1431      C1436   1.405       .  A
C1432      C1433   1.404       .  A
C1432      H1445   1.083       .  S
C1433      C1434   1.419       .  A
C1433      H1446   1.078       .  S
C1434      C1440   1.431       .  A
C1434      C1435   1.419       .  A
C1435      C1437   1.399       .  A
C1435      C1436   1.396       .  A
C1436      H1447   1.085       .  S
C1437      C1438   1.385       .  A
C1437      H1448   1.084       .  S
C1438      C1439   1.396       .  A
C1438      H1449   1.084       .  S
C1439      C1440   1.426       .  A
C1439      C1444   1.401       .  A
C1440      C1441   1.415       .  A
C1441      C1442   1.399       .  A
C1441      H1450   1.078       .  S
C1442      C1443   1.398       .  A
C1442      H1451   1.084       .  S
C1443      C1444   1.393       .  A
C1444      H1452   1.086       .  S
C1453      C1454   1.406       .  A
C1453      C1458   1.407       .  A
C1454      C1455   1.414       .  A
C1454      H1467   1.083   1_556  S
C1455      C1456   1.421       .  A
C1455      H1468   1.079   1_556  S
C1456      C1462   1.444   1_545  A
C1456      C1457   1.421       .  A
C1457      C1459   1.399   1_545  A
C1457      C1458   1.404       .  A
C1458      H1469   1.084       .  S
C1459      C1460   1.387       .  A
C1459      H1470   1.084       .  S
C1460      C1461   1.398       .  A
C1460      H1471   1.084       .  S
C1461      C1462   1.424       .  A
C1461      C1466   1.406       .  A
C1462      C1463   1.420   1_565  A
C1463      C1464   1.412   1_545  A
C1463      H1472   1.079   1_556  S
C1464      C1465   1.404       .  A
C1464      H1473   1.083   1_556  S
C1465      C1466   1.400       .  A
C1466      H1474   1.085       .  S
C1475      C1476   1.401       .  A
C1475      C1480   1.404       .  A
C1476      C1477   1.402       .  A
C1476      H1489   1.083       .  S
C1477      C1478   1.417       .  A
C1477      H1490   1.078       .  S
C1478      C1484   1.433       .  A
C1478      C1479   1.421       .  A
C1479      C1481   1.400       .  A
C1479      C1480   1.404       .  A
C1480      H1491   1.085       .  S
C1481      C1482   1.389       .  A
C1481      H1492   1.084       .  S
C1482      C1483   1.399       .  A
C1482      H1493   1.084       .  S
C1483      C1484   1.425       .  A
C1483      C1488   1.407       .  A
C1484      C1485   1.415       .  A
C1485      C1486   1.399       .  A
C1485      H1494   1.078       .  S
C1486      C1487   1.401       .  A
C1486      H1495   1.084       .  S
C1487      C1488   1.399       .  A
C1488      H1496   1.085       .  S
C1497      C1498   1.403       .  A
C1497      C1502   1.406       .  A
C1498      C1499   1.407       .  A
C1498      H1511   1.083       .  S
C1499      C1500   1.419       .  A
C1499      H1512   1.078       .  S
C1500      C1506   1.440       .  A
C1500      C1501   1.421       .  A
C1501      C1503   1.400       .  A
C1501      C1502   1.408       .  A
C1502      H1513   1.084       .  S
C1503      C1504   1.391       .  A
C1503      H1514   1.084       .  S
C1504      C1505   1.399       .  A
C1504      H1515   1.084       .  S
C1505      C1506   1.426       .  A
C1505      C1510   1.411       .  A
C1506      C1507   1.416       .  A
C1507      C1508   1.404       .  A
C1507      H1516   1.078       .  S
C1508      C1509   1.402       .  A
C1508      H1517   1.084       .  S
C1509      C1510   1.400       .  A
C1510      H1518   1.085       .  S
C1519      C1520   1.403       .  A
C1519      C1524   1.403       .  A
C1520      C1521   1.404       .  A
C1520      H1533   1.083       .  S
C1521      C1522   1.416       .  A
C1521      H1534   1.078       .  S
C1522      C1528   1.441       .  A
C1522      C1523   1.425       .  A
C1523      C1525   1.401       .  A
C1523      C1524   1.415       .  A
C1524      H1535   1.085       .  S
C1525      C1526   1.393       .  A
C1525      H1536   1.084       .  S
C1526      C1527   1.401       .  A
C1526      H1537   1.084       .  S
C1527      C1528   1.423       .  A
C1527      C1532   1.412       .  A
C1528      C1529   1.419       .  A
C1529      C1530   1.407       .  A
C1529      H1538   1.078       .  S
C1530      C1531   1.401       .  A
C1530      H1539   1.083       .  S
C1531      C1532   1.404       .  A
C1532      H1540   1.085       .  S
C1541      C1542   1.400       .  A
C1541      C1546   1.401       .  A
C1542      C1543   1.395       .  A
C1542      H1555   1.084       .  S
C1543      C1544   1.414       .  A
C1543      H1556   1.078       .  S
C1544      C1550   1.429       .  A
C1544      C1545   1.423       .  A
C1545      C1547   1.399       .  A
C1545      C1546   1.407       .  A
C1546      H1557   1.085       .  S
C1547      C1548   1.391       .  A
C1547      H1558   1.084       .  S
C1548      C1549   1.400       .  A
C1548      H1559   1.084       .  S
C1549      C1550   1.422       .  A
C1549      C1554   1.406       .  A
C1550      C1551   1.416       .  A
C1551      C1552   1.397       .  A
C1551      H1560   1.077       .  S
C1552      C1553   1.399       .  A
C1552      H1561   1.084       .  S
C1553      C1554   1.402       .  A
C1554      H1562   1.085       .  S
C1563      C1564   1.402       .  A
C1563      C1568   1.402       .  A
C1564      C1565   1.397       .  A
C1564      H1577   1.084       .  S
C1565      C1566   1.414       .  A
C1565      H1578   1.078       .  S
C1566      C1572   1.434       .  A
C1566      C1567   1.425       .  A
C1567      C1569   1.400       .  A
C1567      C1568   1.411       .  A
C1568      H1579   1.085       .  S
C1569      C1570   1.392       .  A
C1569      H1580   1.084       .  S
C1570      C1571   1.400       .  A
C1570      H1581   1.084       .  S
C1571      C1572   1.421       .  A
C1571      C1576   1.408       .  A
C1572      C1573   1.417       .  A
C1573      C1574   1.401       .  A
C1573      H1582   1.078       .  S
C1574      C1575   1.400       .  A
C1574      H1583   1.083       .  S
C1575      C1576   1.404       .  A
C1576      H1584   1.085       .  S
C1585      C1586   1.403       .  A
C1585      C1590   1.401   1_554  A
C1586      C1587   1.401       .  A
C1586      H1599   1.083       .  S
C1587      C1588   1.414       .  A
C1587      H1600   1.078       .  S
C1588      C1594   1.437       .  A
C1588      C1589   1.426   1_554  A
C1589      C1591   1.399       .  A
C1589      C1590   1.410       .  A
C1590      H1601   1.085       .  S
C1591      C1592   1.390       .  A
C1591      H1602   1.084       .  S
C1592      C1593   1.400       .  A
C1592      H1603   1.084       .  S
C1593      C1594   1.421   1_556  A
C1593      C1598   1.405       .  A
C1594      C1595   1.421       .  A
C1595      C1596   1.407       .  A
C1595      H1604   1.078       .  S
C1596      C1597   1.400       .  A
C1596      H1605   1.083       .  S
C1597      C1598   1.403   1_554  A
C1598      H1606   1.085       .  S
C1607      C1608   1.398       .  A
C1607      C1612   1.401       .  A
C1608      C1609   1.391       .  A
C1608      H1621   1.084       .  S
C1609      C1610   1.413       .  A
C1609      H1622   1.077       .  S
C1610      C1616   1.421       .  A
C1610      C1611   1.422       .  A
C1611      C1613   1.400       .  A
C1611      C1612   1.400       .  A
C1612      H1623   1.085       .  S
C1613      C1614   1.389       .  A
C1613      H1624   1.084       .  S
C1614      C1615   1.399       .  A
C1614      H1625   1.084       .  S
C1615      C1616   1.420       .  A
C1615      C1620   1.400       .  A
C1616      C1617   1.413       .  A
C1617      C1618   1.391       .  A
C1617      H1626   1.078       .  S
C1618      C1619   1.398       .  A
C1618      H1627   1.084       .  S
C1619      C1620   1.399       .  A
C1620      H1628   1.085       .  S
C1629      C1630   1.401       .  A
C1629      C1634   1.399       .  A
C1630      C1631   1.396       .  A
C1630      H1643   1.084       .  S
C1631      C1632   1.412       .  A
C1631      H1644   1.077       .  S
C1632      C1638   1.434       .  A
C1632      C1633   1.427       .  A
C1633      C1635   1.399       .  A
C1633      C1634   1.412       .  A
C1634      H1645   1.084       .  S
C1635      C1636   1.391       .  A
C1635      H1646   1.084       .  S
C1636      C1637   1.401       .  A
C1636      H1647   1.084       .  S
C1637      C1638   1.421       .  A
C1637      C1642   1.405       .  A
C1638      C1639   1.420       .  A
C1639      C1640   1.403       .  A
C1639      H1648   1.077       .  S
C1640      C1641   1.397       .  A
C1640      H1649   1.084       .  S
C1641      C1642   1.401       .  A
C1642      H1650   1.085       .  S
C1651      C1652   1.405       .  A
C1651      C1656   1.405       .  A
C1652      C1653   1.413       .  A
C1652      H1665   1.083   1_556  S
C1653      C1654   1.421       .  A
C1653      H1666   1.079   1_556  S
C1654      C1660   1.442       .  A
C1654      C1655   1.421       .  A
C1655      C1657   1.398       .  A
C1655      C1656   1.401       .  A
C1656      H1667   1.084       .  S
C1657      C1658   1.385       .  A
C1657      H1668   1.084       .  S
C1658      C1659   1.397       .  A
C1658      H1669   1.084       .  S
C1659      C1660   1.424       .  A
C1659      C1664   1.403       .  A
C1660      C1661   1.420   1_556  A
C1661      C1662   1.412       .  A
C1661      H1670   1.079       .  S
C1662      C1663   1.403   1_554  A
C1662      H1671   1.083       .  S
C1663      C1664   1.399       .  A
C1664      H1672   1.085       .  S
C1673      C1674   1.400       .  A
C1673      C1678   1.401       .  A
C1674      C1675   1.394       .  A
C1674      H1687   1.083       .  S
C1675      C1676   1.413       .  A
C1675      H1688   1.078       .  S
C1676      C1682   1.427       .  A
C1676      C1677   1.423       .  A
C1677      C1679   1.399       .  A
C1677      C1678   1.405       .  A
C1678      H1689   1.085       .  S
C1679      C1680   1.390       .  A
C1679      H1690   1.084       .  S
C1680      C1681   1.400       .  A
C1680      H1691   1.084       .  S
C1681      C1682   1.422       .  A
C1681      C1686   1.402       .  A
C1682      C1683   1.416       .  A
C1683      C1684   1.396       .  A
C1683      H1692   1.077       .  S
C1684      C1685   1.397       .  A
C1684      H1693   1.084       .  S
C1685      C1686   1.399       .  A
C1686      H1694   1.085       .  S
C1695      C1696   1.400       .  A
C1695      C1700   1.396       .  A
C1696      C1697   1.394       .  A
C1696      H1709   1.084       .  S
C1697      C1698   1.412       .  A
C1697      H1710   1.077       .  S
C1698      C1704   1.431       .  A
C1698      C1699   1.427       .  A
C1699      C1701   1.397       .  A
C1699      C1700   1.408       .  A
C1700      H1711   1.085       .  S
C1701      C1702   1.389       .  A
C1701      H1712   1.084       .  S
C1702      C1703   1.401       .  A
C1702      H1713   1.084       .  S
C1703      C1704   1.418       .  A
C1703      C1708   1.400       .  A
C1704      C1705   1.420       .  A
C1705      C1706   1.402       .  A
C1705      H1714   1.077       .  S
C1706      C1707   1.400       .  A
C1706      H1715   1.083       .  S
C1707      C1708   1.407       .  A
C1708      H1716   1.084       .  S
C1717      C1718   1.401       .  A
C1717      C1722   1.402       .  A
C1718      C1719   1.407       .  A
C1718      H1731   1.083       .  S
C1719      C1720   1.420   1_565  A
C1719      H1732   1.078   1_565  S
C1720      C1726   1.438       .  A
C1720      C1721   1.422   1_545  A
C1721      C1723   1.399       .  A
C1721      C1722   1.406       .  A
C1722      H1733   1.085       .  S
C1723      C1724   1.389   1_565  A
C1723      H1734   1.084       .  S
C1724      C1725   1.399       .  A
C1724      H1735   1.084       .  S
C1725      C1726   1.425       .  A
C1725      C1730   1.408       .  A
C1726      C1727   1.417       .  A
C1727      C1728   1.405       .  A
C1727      H1736   1.078       .  S
C1728      C1729   1.401       .  A
C1728      H1737   1.083       .  S
C1729      C1730   1.399       .  A
C1730      H1738   1.085       .  S
C1739      C1740   1.397       .  A
C1739      C1744   1.399       .  A
C1740      C1741   1.394       .  A
C1740      H1753   1.083       .  S
C1741      C1742   1.415       .  A
C1741      H1754   1.078       .  S
C1742      C1748   1.425       .  A
C1742      C1743   1.423       .  A
C1743      C1745   1.399       .  A
C1743      C1744   1.401       .  A
C1744      H1755   1.086       .  S
C1745      C1746   1.388       .  A
C1745      H1756   1.084       .  S
C1746      C1747   1.399       .  A
C1746      H1757   1.084       .  S
C1747      C1748   1.422       .  A
C1747      C1752   1.401       .  A
C1748      C1749   1.414       .  A
C1749      C1750   1.394       .  A
C1749      H1758   1.078       .  S
C1750      C1751   1.400       .  A
C1750      H1759   1.083       .  S
C1751      C1752   1.401       .  A
C1752      H1760   1.085       .  S
C1761      C1762   1.401       .  A
C1761      C1766   1.402       .  A
C1762      C1763   1.399       .  A
C1762      H1775   1.084       .  S
C1763      C1764   1.415       .  A
C1763      H1776   1.077       .  S
C1764      C1770   1.437       .  A
C1764      C1765   1.425       .  A
C1765      C1767   1.401       .  A
C1765      C1766   1.414       .  A
C1766      H1777   1.084       .  S
C1767      C1768   1.394       .  A
C1767      H1778   1.084       .  S
C1768      C1769   1.401       .  A
C1768      H1779   1.084       .  S
C1769      C1770   1.422       .  A
C1769      C1774   1.412       .  A
C1770      C1771   1.417       .  A
C1771      C1772   1.401       .  A
C1771      H1780   1.077       .  S
C1772      C1773   1.403       .  A
C1772      H1781   1.083       .  S
C1773      C1774   1.407       .  A
C1774      H1782   1.084       .  S
C1783      C1784   1.399       .  A
C1783      C1788   1.402       .  A
C1784      C1785   1.395       .  A
C1784      H1797   1.084       .  S
C1785      C1786   1.416       .  A
C1785      H1798   1.076       .  S
C1786      C1792   1.426       .  A
C1786      C1787   1.421       .  A
C1787      C1789   1.400       .  A
C1787      C1788   1.401       .  A
C1788      H1799   1.085       .  S
C1789      C1790   1.389       .  A
C1789      H1800   1.084       .  S
C1790      C1791   1.399       .  A
C1790      H1801   1.084       .  S
C1791      C1792   1.423       .  A
C1791      C1796   1.404       .  A
C1792      C1793   1.413       .  A
C1793      C1794   1.392       .  A
C1793      H1802   1.077       .  S
C1794      C1795   1.401       .  A
C1794      H1803   1.084       .  S
C1795      C1796   1.401       .  A
C1796      H1804   1.084       .  S
C1805      C1806   1.400       .  A
C1805      C1810   1.407       .  A
C1806      C1807   1.403       .  A
C1806      H1819   1.083       .  S
C1807      C1808   1.420       .  A
C1807      H1820   1.078       .  S
C1808      C1814   1.432       .  A
C1808      C1809   1.418       .  A
C1809      C1811   1.401       .  A
C1809      C1810   1.401       .  A
C1810      H1821   1.085       .  S
C1811      C1812   1.389       .  A
C1811      H1822   1.084       .  S
C1812      C1813   1.397       .  A
C1812      H1823   1.084       .  S
C1813      C1814   1.427       .  A
C1813      C1818   1.409       .  A
C1814      C1815   1.411       .  A
C1815      C1816   1.394       .  A
C1815      H1824   1.078       .  S
C1816      C1817   1.404       .  A
C1816      H1825   1.084       .  S
C1817      C1818   1.398       .  A
C1818      H1826   1.085       .  S
C1827      C1828   1.401       .  A
C1827      C1832   1.401       .  A
C1828      C1829   1.401       .  A
C1828      H1841   1.084       .  S
C1829      C1830   1.416       .  A
C1829      H1842   1.078       .  S
C1830      C1836   1.437       .  A
C1830      C1831   1.425       .  A
C1831      C1833   1.400       .  A
C1831      C1832   1.412       .  A
C1832      H1843   1.085       .  S
C1833      C1834   1.393       .  A
C1833      H1844   1.084       .  S
C1834      C1835   1.401       .  A
C1834      H1845   1.084       .  S
C1835      C1836   1.422       .  A
C1835      C1840   1.411       .  A
C1836      C1837   1.417       .  A
C1837      C1838   1.402       .  A
C1837      H1846   1.078       .  S
C1838      C1839   1.403       .  A
C1838      H1847   1.083       .  S
C1839      C1840   1.406       .  A
C1840      H1848   1.084       .  S
C1849      C1850   1.401       .  A
C1849      C1854   1.399       .  A
C1850      C1851   1.395       .  A
C1850      H1863   1.084       .  S
C1851      C1852   1.414       .  A
C1851      H1864   1.077       .  S
C1852      C1858   1.428       .  A
C1852      C1853   1.424       .  A
C1853      C1855   1.399       .  A
C1853      C1854   1.403       .  A
C1854      H1865   1.085       .  S
C1855      C1856   1.388       .  A
C1855      H1866   1.084       .  S
C1856      C1857   1.399       .  A
C1856      H1867   1.084       .  S
C1857      C1858   1.421       .  A
C1857      C1862   1.401       .  A
C1858      C1859   1.416       .  A
C1859      C1860   1.397       .  A
C1859      H1868   1.078       .  S
C1860      C1861   1.400       .  A
C1860      H1869   1.083       .  S
C1861      C1862   1.402       .  A
C1862      H1870   1.085       .  S
C1871      C1872   1.399       .  A
C1871      C1876   1.399       .  A
C1872      C1873   1.396       .  A
C1872      H1885   1.084       .  S
C1873      C1874   1.415       .  A
C1873      H1886   1.078       .  S
C1874      C1880   1.427       .  A
C1874      C1875   1.422       .  A
C1875      C1877   1.399       .  A
C1875      C1876   1.402       .  A
C1876      H1887   1.085       .  S
C1877      C1878   1.389       .  A
C1877      H1888   1.084       .  S
C1878      C1879   1.399       .  A
C1878      H1889   1.084       .  S
C1879      C1880   1.423       .  A
C1879      C1884   1.402       .  A
C1880      C1881   1.414       .  A
C1881      C1882   1.394       .  A
C1881      H1890   1.077       .  S
C1882      C1883   1.399       .  A
C1882      H1891   1.084       .  S
C1883      C1884   1.400       .  A
C1884      H1892   1.085       .  S
C1893      C1894   1.401       .  A
C1893      C1898   1.396       .  A
C1894      C1895   1.405       .  A
C1894      H1907   1.083       .  S
C1895      C1896   1.418       .  A
C1895      H1908   1.078       .  S
C1896      C1902   1.436       .  A
C1896      C1897   1.424       .  A
C1897      C1899   1.397       .  A
C1897      C1898   1.401       .  A
C1898      H1909   1.086       .  S
C1899      C1900   1.385       .  A
C1899      H1910   1.084       .  S
C1900      C1901   1.399       .  A
C1900      H1911   1.084       .  S
C1901      C1902   1.420       .  A
C1901      C1906   1.398       .  A
C1902      C1903   1.420       .  A
C1903      C1904   1.409       .  A
C1903      H1912   1.078       .  S
C1904      C1905   1.402       .  A
C1904      H1913   1.083       .  S
C1905      C1906   1.405       .  A
C1906      H1914   1.085       .  S
C1915      C1916   1.399       .  A
C1915      C1920   1.404       .  A
C1916      C1917   1.404       .  A
C1916      H1929   1.083       .  S
C1917      C1918   1.419       .  A
C1917      H1930   1.078       .  S
C1918      C1924   1.438   1_565  A
C1918      C1919   1.422       .  A
C1919      C1921   1.401   1_565  A
C1919      C1920   1.411       .  A
C1920      H1931   1.085       .  S
C1921      C1922   1.393       .  A
C1921      H1932   1.084   1_545  S
C1922      C1923   1.400       .  A
C1922      H1933   1.084       .  S
C1923      C1924   1.425       .  A
C1923      C1928   1.414       .  A
C1924      C1925   1.415       .  A
C1925      C1926   1.400       .  A
C1925      H1934   1.078       .  S
C1926      C1927   1.402       .  A
C1926      H1935   1.084       .  S
C1927      C1928   1.403       .  A
C1928      H1936   1.085       .  S
C1937      C1938   1.399       .  A
C1937      C1942   1.407       .  A
C1938      C1939   1.401       .  A
C1938      H1951   1.083       .  S
C1939      C1940   1.419       .  A
C1939      H1952   1.077       .  S
C1940      C1946   1.430       .  A
C1940      C1941   1.418       .  A
C1941      C1943   1.401       .  A
C1941      C1942   1.401       .  A
C1942      H1953   1.084       .  S
C1943      C1944   1.390       .  A
C1943      H1954   1.084       .  S
C1944      C1945   1.398       .  A
C1944      H1955   1.084       .  S
C1945      C1946   1.426       .  A
C1945      C1950   1.409       .  A
C1946      C1947   1.411       .  A
C1947      C1948   1.392       .  A
C1947      H1956   1.077       .  S
C1948      C1949   1.402       .  A
C1948      H1957   1.084       .  S
C1949      C1950   1.399       .  A
C1950      H1958   1.084       .  S
C1959      C1960   1.402       .  A
C1959      C1964   1.406       .  A
C1960      C1961   1.402       .  A
C1960      H1973   1.083       .  S
C1961      C1962   1.418       .  A
C1961      H1974   1.078       .  S
C1962      C1968   1.437       .  A
C1962      C1963   1.422       .  A
C1963      C1965   1.401       .  A
C1963      C1964   1.411       .  A
C1964      H1975   1.084       .  S
C1965      C1966   1.393       .  A
C1965      H1976   1.084       .  S
C1966      C1967   1.400       .  A
C1966      H1977   1.084   1_655  S
C1967      C1968   1.425       .  A
C1967      C1972   1.414   1_655  A
C1968      C1969   1.414       .  A
C1969      C1970   1.399   1_655  A
C1969      H1978   1.078       .  S
C1970      C1971   1.401       .  A
C1970      H1979   1.084       .  S
C1971      C1972   1.402       .  A
C1972      H1980   1.085       .  S
C1981      C1982   1.401       .  A
C1981      C1986   1.399       .  A
C1982      C1983   1.394       .  A
C1982      H1995   1.084       .  S
C1983      C1984   1.414       .  A
C1983      H1996   1.077       .  S
C1984      C1990   1.427       .  A
C1984      C1985   1.423       .  A
C1985      C1987   1.398       .  A
C1985      C1986   1.402       .  A
C1986      H1997   1.085       .  S
C1987      C1988   1.388       .  A
C1987      H1998   1.084       .  S
C1988      C1989   1.399       .  A
C1988      H1999   1.084       .  S
C1989      C1990   1.422       .  A
C1989      C1994   1.401       .  A
C1990      C1991   1.415       .  A
C1991      C1992   1.395       .  A
C1991      H2000   1.078       .  S
C1992      C1993   1.401       .  A
C1992      H2001   1.083       .  S
C1993      C1994   1.400       .  A
C1994      H2002   1.085       .  S
C2003      C2004   1.401       .  A
C2003      C2008   1.401       .  A
C2004      C2005   1.403       .  A
C2004      H2017   1.083       .  S
C2005      C2006   1.416       .  A
C2005      H2018   1.078       .  S
C2006      C2012   1.437       .  A
C2006      C2007   1.425       .  A
C2007      C2009   1.400       .  A
C2007      C2008   1.410       .  A
C2008      H2019   1.085       .  S
C2009      C2010   1.391       .  A
C2009      H2020   1.084       .  S
C2010      C2011   1.400       .  A
C2010      H2021   1.084       .  S
C2011      C2012   1.422       .  A
C2011      C2016   1.406       .  A
C2012      C2013   1.419       .  A
C2013      C2014   1.406       .  A
C2013      H2022   1.078       .  S
C2014      C2015   1.399       .  A
C2014      H2023   1.083       .  S
C2015      C2016   1.402       .  A
C2016      H2024   1.085       .  S
C2025      C2026   1.405       .  A
C2025      C2030   1.403       .  A
C2026      C2027   1.392       .  A
C2026      H2039   1.083       .  S
C2027      C2028   1.409       .  A
C2027      H2040   1.077       .  S
C2028      C2034   1.433       .  A
C2028      C2029   1.427       .  A
C2029      C2031   1.399       .  A
C2029      C2030   1.414       .  A
C2030      H2041   1.084       .  S
C2031      C2032   1.392       .  A
C2031      H2042   1.084       .  S
C2032      C2033   1.402       .  A
C2032      H2043   1.084       .  S
C2033      C2034   1.418       .  A
C2033      C2038   1.404       .  A
C2034      C2035   1.421       .  A
C2035      C2036   1.402       .  A
C2035      H2044   1.077       .  S
C2036      C2037   1.397       .  A
C2036      H2045   1.083       .  S
C2037      C2038   1.408       .  A
C2038      H2046   1.085       .  S
C2047      C2048   1.401       .  A
C2047      C2052   1.401       .  A
C2048      C2049   1.401       .  A
C2048      H2061   1.084       .  S
C2049      C2050   1.415       .  A
C2049      H2062   1.078       .  S
C2050      C2056   1.438       .  A
C2050      C2051   1.426       .  A
C2051      C2053   1.400       .  A
C2051      C2052   1.414       .  A
C2052      H2063   1.084       .  S
C2053      C2054   1.393       .  A
C2053      H2064   1.084       .  S
C2054      C2055   1.401       .  A
C2054      H2065   1.084       .  S
C2055      C2056   1.422       .  A
C2055      C2060   1.410       .  A
C2056      C2057   1.418       .  A
C2057      C2058   1.404       .  A
C2057      H2066   1.078       .  S
C2058      C2059   1.401   1_455  A
C2058      H2067   1.083       .  S
C2059      C2060   1.405   1_655  A
C2060      H2068   1.085   1_455  S
C2069      C2070   1.403       .  A
C2069      C2074   1.406       .  A
C2070      C2071   1.402       .  A
C2070      H2083   1.083       .  S
C2071      C2072   1.416       .  A
C2071      H2084   1.078       .  S
C2072      C2078   1.438       .  A
C2072      C2073   1.423       .  A
C2073      C2075   1.401       .  A
C2073      C2074   1.412       .  A
C2074      H2085   1.084       .  S
C2075      C2076   1.393       .  A
C2075      H2086   1.084       .  S
C2076      C2077   1.400       .  A
C2076      H2087   1.084       .  S
C2077      C2078   1.424       .  A
C2077      C2082   1.412       .  A
C2078      C2079   1.416       .  A
C2079      C2080   1.401       .  A
C2079      H2088   1.078       .  S
C2080      C2081   1.400       .  A
C2080      H2089   1.084       .  S
C2081      C2082   1.402       .  A
C2082      H2090   1.085       .  S
C2091      C2092   1.401       .  A
C2091      C2096   1.405       .  A
C2092      C2093   1.400       .  A
C2092      H2105   1.083       .  S
C2093      C2094   1.417       .  A
C2093      H2106   1.077       .  S
C2094      C2100   1.432       .  A
C2094      C2095   1.421       .  A
C2095      C2097   1.400       .  A
C2095      C2096   1.405       .  A
C2096      H2107   1.085       .  S
C2097      C2098   1.390       .  A
C2097      H2108   1.084       .  S
C2098      C2099   1.399       .  A
C2098      H2109   1.084       .  S
C2099      C2100   1.424       .  A
C2099      C2104   1.406       .  A
C2100      C2101   1.414       .  A
C2101      C2102   1.397       .  A
C2101      H2110   1.077       .  S
C2102      C2103   1.402       .  A
C2102      H2111   1.084       .  S
C2103      C2104   1.402       .  A
C2104      H2112   1.084       .  S
C2113      C2114   1.402       .  A
C2113      C2118   1.397       .  A
C2114      C2115   1.395       .  A
C2114      H2127   1.084       .  S
C2115      C2116   1.411       .  A
C2115      H2128   1.078       .  S
C2116      C2122   1.433       .  A
C2116      C2117   1.428       .  A
C2117      C2119   1.398       .  A
C2117      C2118   1.410       .  A
C2118      H2129   1.085       .  S
C2119      C2120   1.389       .  A
C2119      H2130   1.084       .  S
C2120      C2121   1.400       .  A
C2120      H2131   1.084       .  S
C2121      C2122   1.419       .  A
C2121      C2126   1.401       .  A
C2122      C2123   1.421       .  A
C2123      C2124   1.404       .  A
C2123      H2132   1.077       .  S
C2124      C2125   1.398       .  A
C2124      H2133   1.083       .  S
C2125      C2126   1.403       .  A
C2126      H2134   1.085       .  S
C2135      C2136   1.400       .  A
C2135      C2140   1.404       .  A
C2136      C2137   1.401       .  A
C2136      H2149   1.083       .  S
C2137      C2138   1.417       .  A
C2137      H2150   1.078       .  S
C2138      C2144   1.433       .  A
C2138      C2139   1.421       .  A
C2139      C2141   1.400       .  A
C2139      C2140   1.406       .  A
C2140      H2151   1.085       .  S
C2141      C2142   1.391       .  A
C2141      H2152   1.084       .  S
C2142      C2143   1.400       .  A
C2142      H2153   1.084       .  S
C2143      C2144   1.424       .  A
C2143      C2148   1.409       .  A
C2144      C2145   1.414       .  A
C2145      C2146   1.398       .  A
C2145      H2154   1.078       .  S
C2146      C2147   1.401       .  A
C2146      H2155   1.084       .  S
C2147      C2148   1.401       .  A
C2148      H2156   1.085       .  S
C2157      C2158   1.402       .  A
C2157      C2162   1.406       .  A
C2158      C2159   1.402       .  A
C2158      H2171   1.083       .  S
C2159      C2160   1.417       .  A
C2159      H2172   1.078       .  S
C2160      C2166   1.436   1_545  A
C2160      C2161   1.422       .  A
C2161      C2163   1.401       .  A
C2161      C2162   1.409       .  A
C2162      H2173   1.085       .  S
C2163      C2164   1.392       .  A
C2163      H2174   1.084       .  S
C2164      C2165   1.400   1_545  A
C2164      H2175   1.084       .  S
C2165      C2166   1.425       .  A
C2165      C2170   1.411       .  A
C2166      C2167   1.416       .  A
C2167      C2168   1.400       .  A
C2167      H2176   1.078       .  S
C2168      C2169   1.400       .  A
C2168      H2177   1.084       .  S
C2169      C2170   1.401       .  A
C2170      H2178   1.085       .  S
C2179      C2180   1.404       .  A
C2179      C2184   1.408       .  A
C2180      C2181   1.410       .  A
C2180      H2193   1.083       .  S
C2181      C2182   1.419       .  A
C2181      H2194   1.078       .  S
C2182      C2188   1.442       .  A
C2182      C2183   1.422       .  A
C2183      C2185   1.400       .  A
C2183      C2184   1.406       .  A
C2184      H2195   1.084       .  S
C2185      C2186   1.389       .  A
C2185      H2196   1.084       .  S
C2186      C2187   1.399       .  A
C2186      H2197   1.084       .  S
C2187      C2188   1.423       .  A
C2187      C2192   1.408       .  A
C2188      C2189   1.419       .  A
C2189      C2190   1.410       .  A
C2189      H2198   1.078       .  S
C2190      C2191   1.402       .  A
C2190      H2199   1.083       .  S
C2191      C2192   1.403       .  A
C2192      H2200   1.085       .  S
C2201      C2202   1.400       .  A
C2201      C2206   1.401       .  A
C2202      C2203   1.397       .  A
C2202      H2215   1.083       .  S
C2203      C2204   1.415       .  A
C2203      H2216   1.078       .  S
C2204      C2210   1.429       .  A
C2204      C2205   1.422       .  A
C2205      C2207   1.400       .  A
C2205      C2206   1.405       .  A
C2206      H2217   1.085       .  S
C2207      C2208   1.390       .  A
C2207      H2218   1.084       .  S
C2208      C2209   1.400       .  A
C2208      H2219   1.084       .  S
C2209      C2210   1.423       .  A
C2209      C2214   1.405       .  A
C2210      C2211   1.415       .  A
C2211      C2212   1.396       .  A
C2211      H2220   1.078       .  S
C2212      C2213   1.398       .  A
C2212      H2221   1.084       .  S
C2213      C2214   1.399       .  A
C2214      H2222   1.085       .  S
C2223      C2224   1.400       .  A
C2223      C2228   1.402       .  A
C2224      C2225   1.396       .  A
C2224      H2237   1.083       .  S
C2225      C2226   1.416       .  A
C2225      H2238   1.078       .  S
C2226      C2232   1.424       .  A
C2226      C2227   1.420       .  A
C2227      C2229   1.400       .  A
C2227      C2228   1.398       .  A
C2228      H2239   1.084       .  S
C2229      C2230   1.388       .  A
C2229      H2240   1.084       .  S
C2230      C2231   1.398       .  A
C2230      H2241   1.084       .  S
C2231      C2232   1.422       .  A
C2231      C2236   1.401       .  A
C2232      C2233   1.412       .  A
C2233      C2234   1.393       .  A
C2233      H2242   1.078       .  S
C2234      C2235   1.400       .  A
C2234      H2243   1.084       .  S
C2235      C2236   1.398       .  A
C2236      H2244   1.085       .  S
C2245      C2246   1.401       .  A
C2245      C2250   1.401       .  A
C2246      C2247   1.397       .  A
C2246      H2259   1.084       .  S
C2247      C2248   1.414       .  A
C2247      H2260   1.077       .  S
C2248      C2254   1.434       .  A
C2248      C2249   1.425       .  A
C2249      C2251   1.399       .  A
C2249      C2250   1.411       .  A
C2250      H2261   1.084       .  S
C2251      C2252   1.391       .  A
C2251      H2262   1.084       .  S
C2252      C2253   1.400       .  A
C2252      H2263   1.084       .  S
C2253      C2254   1.421       .  A
C2253      C2258   1.406       .  A
C2254      C2255   1.418       .  A
C2255      C2256   1.402       .  A
C2255      H2264   1.077       .  S
C2256      C2257   1.400       .  A
C2256      H2265   1.083       .  S
C2257      C2258   1.404       .  A
C2258      H2266   1.085       .  S
C2267      C2268   1.400       .  A
C2267      C2272   1.405       .  A
C2268      C2269   1.402       .  A
C2268      H2281   1.083       .  S
C2269      C2270   1.418       .  A
C2269      H2282   1.078       .  S
C2270      C2276   1.436       .  A
C2270      C2271   1.421       .  A
C2271      C2273   1.401       .  A
C2271      C2272   1.411       .  A
C2272      H2283   1.085       .  S
C2273      C2274   1.394       .  A
C2273      H2284   1.084       .  S
C2274      C2275   1.401       .  A
C2274      H2285   1.084       .  S
C2275      C2276   1.425       .  A
C2275      C2280   1.415       .  A
C2276      C2277   1.414       .  A
C2277      C2278   1.398       .  A
C2277      H2286   1.078       .  S
C2278      C2279   1.401       .  A
C2278      H2287   1.084       .  S
C2279      C2280   1.402       .  A
C2280      H2288   1.084       .  S
C2289      C2290   1.399       .  A
C2289      C2294   1.402       .  A
C2290      C2291   1.398       .  A
C2290      H2303   1.083       .  S
C2291      C2292   1.416       .  A
C2291      H2304   1.078       .  S
C2292      C2298   1.430       .  A
C2292      C2293   1.423       .  A
C2293      C2295   1.401       .  A
C2293      C2294   1.407       .  A
C2294      H2305   1.085       .  S
C2295      C2296   1.392       .  A
C2295      H2306   1.084       .  S
C2296      C2297   1.400       .  A
C2296      H2307   1.084       .  S
C2297      C2298   1.422       .  A
C2297      C2302   1.407       .  A
C2298      C2299   1.414       .  A
C2299      C2300   1.397       .  A
C2299      H2308   1.078       .  S
C2300      C2301   1.401       .  A
C2300      H2309   1.083       .  S
C2301      C2302   1.403       .  A
C2302      H2310   1.085       .  S
C2311      C2312   1.404       .  A
C2311      C2316   1.406       .  A
C2312      C2313   1.404       .  A
C2312      H2325   1.083       .  S
C2313      C2314   1.417       .  A
C2313      H2326   1.078       .  S
C2314      C2320   1.438       .  A
C2314      C2315   1.422       .  A
C2315      C2317   1.400       .  A
C2315      C2316   1.409       .  A
C2316      H2327   1.084       .  S
C2317      C2318   1.391       .  A
C2317      H2328   1.084       .  S
C2318      C2319   1.399       .  A
C2318      H2329   1.084       .  S
C2319      C2320   1.424       .  A
C2319      C2324   1.410   1_545  A
C2320      C2321   1.417   1_545  A
C2321      C2322   1.402       .  A
C2321      H2330   1.078       .  S
C2322      C2323   1.400       .  A
C2322      H2331   1.084       .  S
C2323      C2324   1.400       .  A
C2324      H2332   1.085       .  S
C2333      C2334   1.397       .  A
C2333      C2338   1.401       .  A
C2334      C2335   1.404       .  A
C2334      H2347   1.083       .  S
C2335      C2336   1.420       .  A
C2335      H2348   1.077       .  S
C2336      C2342   1.435       .  A
C2336      C2337   1.421       .  A
C2337      C2339   1.400       .  A
C2337      C2338   1.405       .  A
C2338      H2349   1.085       .  S
C2339      C2340   1.391       .  A
C2339      H2350   1.084       .  S
C2340      C2341   1.399       .  A
C2340      H2351   1.084       .  S
C2341      C2342   1.426       .  A
C2341      C2346   1.412       .  A
C2342      C2343   1.413       .  A
C2343      C2344   1.397       .  A
C2343      H2352   1.077       .  S
C2344      C2345   1.402       .  A
C2344      H2353   1.084       .  S
C2345      C2346   1.399       .  A
C2346      H2354   1.084       .  S
C2355      C2356   1.406       .  A
C2355      C2360   1.401       .  A
C2356      C2357   1.391       .  A
C2356      H2369   1.083       .  S
C2357      C2358   1.409       .  A
C2357      H2370   1.078       .  S
C2358      C2364   1.429       .  A
C2358      C2359   1.426       .  A
C2359      C2361   1.398       .  A
C2359      C2360   1.409       .  A
C2360      H2371   1.084       .  S
C2361      C2362   1.389       .  A
C2361      H2372   1.084       .  S
C2362      C2363   1.400       .  A
C2362      H2373   1.084       .  S
C2363      C2364   1.418       .  A
C2363      C2368   1.399       .  A
C2364      C2365   1.420       .  A
C2365      C2366   1.400       .  A
C2365      H2374   1.078       .  S
C2366      C2367   1.397       .  A
C2366      H2375   1.083       .  S
C2367      C2368   1.404       .  A
C2368      H2376   1.085       .  S
C2377      C2378   1.402       .  A
C2377      C2382   1.401       .  A
C2378      C2379   1.404       .  A
C2378      H2391   1.083       .  S
C2379      C2380   1.416       .  A
C2379      H2392   1.078       .  S
C2380      C2386   1.439       .  A
C2380      C2381   1.425       .  A
C2381      C2383   1.400       .  A
C2381      C2382   1.411       .  A
C2382      H2393   1.085       .  S
C2383      C2384   1.391       .  A
C2383      H2394   1.084       .  S
C2384      C2385   1.400       .  A
C2384      H2395   1.084       .  S
C2385      C2386   1.421       .  A
C2385      C2390   1.407       .  A
C2386      C2387   1.420       .  A
C2387      C2388   1.407       .  A
C2387      H2396   1.078       .  S
C2388      C2389   1.401       .  A
C2388      H2397   1.083       .  S
C2389      C2390   1.404       .  A
C2390      H2398   1.085       .  S
C2399      C2400   1.399       .  A
C2399      C2404   1.401       .  A
C2400      C2401   1.404       .  A
C2400      H2413   1.083       .  S
C2401      C2402   1.418       .  A
C2401      H2414   1.077       .  S
C2402      C2408   1.438       .  A
C2402      C2403   1.424       .  A
C2403      C2405   1.400       .  A
C2403      C2404   1.409       .  A
C2404      H2415   1.085       .  S
C2405      C2406   1.391       .  A
C2405      H2416   1.084       .  S
C2406      C2407   1.400       .  A
C2406      H2417   1.084       .  S
C2407      C2408   1.422       .  A
C2407      C2412   1.408       .  A
C2408      C2409   1.417       .  A
C2409      C2410   1.404       .  A
C2409      H2418   1.077       .  S
C2410      C2411   1.403       .  A
C2410      H2419   1.083       .  S
C2411      C2412   1.407       .  A
C2412      H2420   1.084       .  S
C2421      C2422   1.401       .  A
C2421      C2426   1.402       .  A
C2422      C2423   1.397       .  A
C2422      H2435   1.083       .  S
C2423      C2424   1.415       .  A
C2423      H2436   1.078       .  S
C2424      C2430   1.429       .  A
C2424      C2425   1.422       .  A
C2425      C2427   1.399       .  A
C2425      C2426   1.403       .  A
C2426      H2437   1.085       .  S
C2427      C2428   1.388       .  A
C2427      H2438   1.084       .  S
C2428      C2429   1.399       .  A
C2428      H2439   1.084       .  S
C2429      C2430   1.423       .  A
C2429      C2434   1.403       .  A
C2430      C2431   1.415       .  A
C2431      C2432   1.396       .  A
C2431      H2440   1.078       .  S
C2432      C2433   1.401       .  A
C2432      H2441   1.084       .  S
C2433      C2434   1.401       .  A
C2434      H2442   1.085       .  S
C2443      C2444   1.400       .  A
C2443      C2448   1.401       .  A
C2444      C2445   1.392       .  A
C2444      H2457   1.084       .  S
C2445      C2446   1.413       .  A
C2445      H2458   1.077       .  S
C2446      C2452   1.423       .  A
C2446      C2447   1.422       .  A
C2447      C2449   1.400       .  A
C2447      C2448   1.402       .  A
C2448      H2459   1.084       .  S
C2449      C2450   1.390       .  A
C2449      H2460   1.084       .  S
C2450      C2451   1.399       .  A
C2450      H2461   1.084       .  S
C2451      C2452   1.421       .  A
C2451      C2456   1.401       .  A
C2452      C2453   1.413       .  A
C2453      C2454   1.393       .  A
C2453      H2462   1.078       .  S
C2454      C2455   1.398       .  A
C2454      H2463   1.084       .  S
C2455      C2456   1.400       .  A
C2456      H2464   1.085       .  S
C2465      C2466   1.405       .  A
C2465      C2470   1.398       .  A
C2466      C2467   1.391       .  A
C2466      H2479   1.083       .  S
C2467      C2468   1.409       .  A
C2467      H2480   1.078       .  S
C2468      C2474   1.430       .  A
C2468      C2469   1.427       .  A
C2469      C2471   1.397       .  A
C2469      C2470   1.408       .  A
C2470      H2481   1.084       .  S
C2471      C2472   1.389       .  A
C2471      H2482   1.084       .  S
C2472      C2473   1.401       .  A
C2472      H2483   1.084       .  S
C2473      C2474   1.418       .  A
C2473      C2478   1.399       .  A
C2474      C2475   1.421       .  A
C2475      C2476   1.402       .  A
C2475      H2484   1.078       .  S
C2476      C2477   1.398       .  A
C2476      H2485   1.083       .  S
C2477      C2478   1.406       .  A
C2478      H2486   1.085       .  S
C2487      C2488   1.395       .  A
C2487      C2492   1.402       .  A
C2488      C2489   1.403       .  A
C2488      H2501   1.083       .  S
C2489      C2490   1.422       .  A
C2489      H2502   1.077       .  S
C2490      C2496   1.430       .  A
C2490      C2491   1.418       .  A
C2491      C2493   1.401       .  A
C2491      C2492   1.398       .  A
C2492      H2503   1.086       .  S
C2493      C2494   1.389       .  A
C2493      H2504   1.084       .  S
C2494      C2495   1.398       .  A
C2494      H2505   1.084       .  S
C2495      C2496   1.428       .  A
C2495      C2500   1.409       .  A
C2496      C2497   1.410       .  A
C2497      C2498   1.392       .  A
C2497      H2506   1.077       .  S
C2498      C2499   1.399       .  A
C2498      H2507   1.084       .  S
C2499      C2500   1.396       .  A
C2500      H2508   1.084       .  S
C2509      C2510   1.402   1_554  A
C2509      C2514   1.406       .  A
C2510      C2511   1.404       .  A
C2510      H2523   1.083       .  S
C2511      C2512   1.418   1_556  A
C2511      H2524   1.077       .  S
C2512      C2518   1.437       .  A
C2512      C2513   1.422       .  A
C2513      C2515   1.401       .  A
C2513      C2514   1.409       .  A
C2514      H2525   1.084       .  S
C2515      C2516   1.392       .  A
C2515      H2526   1.084       .  S
C2516      C2517   1.399       .  A
C2516      H2527   1.084       .  S
C2517      C2518   1.425       .  A
C2517      C2522   1.411       .  A
C2518      C2519   1.415   1_554  A
C2519      C2520   1.400       .  A
C2519      H2528   1.078       .  S
C2520      C2521   1.401   1_556  A
C2520      H2529   1.084       .  S
C2521      C2522   1.400       .  A
C2522      H2530   1.085       .  S
C2531      C2532   1.400       .  A
C2531      C2536   1.401       .  A
C2532      C2533   1.395       .  A
C2532      H2545   1.083       .  S
C2533      C2534   1.414       .  A
C2533      H2546   1.078       .  S
C2534      C2540   1.429       .  A
C2534      C2535   1.423       .  A
C2535      C2537   1.399       .  A
C2535      C2536   1.404       .  A
C2536      H2547   1.085       .  S
C2537      C2538   1.389       .  A
C2537      H2548   1.084       .  S
C2538      C2539   1.400       .  A
C2538      H2549   1.084       .  S
C2539      C2540   1.421       .  A
C2539      C2544   1.403       .  A
C2540      C2541   1.415       .  A
C2541      C2542   1.397       .  A
C2541      H2550   1.078       .  S
C2542      C2543   1.401       .  A
C2542      H2551   1.083       .  S
C2543      C2544   1.403       .  A
C2544      H2552   1.085       .  S
C2553      C2554   1.400   1_554  A
C2553      C2558   1.404       .  A
C2554      C2555   1.405       .  A
C2554      H2567   1.083       .  S
C2555      C2556   1.418       .  A
C2555      H2568   1.078       .  S
C2556      C2562   1.438       .  A
C2556      C2557   1.422   1_556  A
C2557      C2559   1.401       .  A
C2557      C2558   1.410       .  A
C2558      H2569   1.085       .  S
C2559      C2560   1.393       .  A
C2559      H2570   1.084       .  S
C2560      C2561   1.400       .  A
C2560      H2571   1.084       .  S
C2561      C2562   1.424   1_554  A
C2561      C2566   1.412       .  A
C2562      C2563   1.415       .  A
C2563      C2564   1.402       .  A
C2563      H2572   1.078       .  S
C2564      C2565   1.403       .  A
C2564      H2573   1.083       .  S
C2565      C2566   1.403   1_556  A
C2566      H2574   1.085       .  S
C2575      C2576   1.403       .  A
C2575      C2580   1.401       .  A
C2576      C2577   1.399       .  A
C2576      H2589   1.084       .  S
C2577      C2578   1.414       .  A
C2577      H2590   1.077       .  S
C2578      C2584   1.435       .  A
C2578      C2579   1.425       .  A
C2579      C2581   1.399       .  A
C2579      C2580   1.410       .  A
C2580      H2591   1.085       .  S
C2581      C2582   1.391       .  A
C2581      H2592   1.084       .  S
C2582      C2583   1.400       .  A
C2582      H2593   1.084       .  S
C2583      C2584   1.421       .  A
C2583      C2588   1.406       .  A
C2584      C2585   1.418       .  A
C2585      C2586   1.403       .  A
C2585      H2594   1.078       .  S
C2586      C2587   1.400       .  A
C2586      H2595   1.083       .  S
C2587      C2588   1.404       .  A
C2588      H2596   1.085       .  S
C2597      C2598   1.403       .  A
C2597      C2602   1.406       .  A
C2598      C2599   1.407       .  A
C2598      H2611   1.083       .  S
C2599      C2600   1.419       .  A
C2599      H2612   1.078       .  S
C2600      C2606   1.439       .  A
C2600      C2601   1.422       .  A
C2601      C2603   1.400       .  A
C2601      C2602   1.407       .  A
C2602      H2613   1.085       .  S
C2603      C2604   1.390       .  A
C2603      H2614   1.084       .  S
C2604      C2605   1.399       .  A
C2604      H2615   1.084       .  S
C2605      C2606   1.425       .  A
C2605      C2610   1.410       .  A
C2606      C2607   1.417       .  A
C2607      C2608   1.405       .  A
C2607      H2616   1.078       .  S
C2608      C2609   1.400       .  A
C2608      H2617   1.083       .  S
C2609      C2610   1.400       .  A
C2610      H2618   1.085       .  S
C2619      C2620   1.400       .  A
C2619      C2624   1.400       .  A
C2620      C2621   1.398       .  A
C2620      H2633   1.083       .  S
C2621      C2622   1.415       .  A
C2621      H2634   1.078       .  S
C2622      C2628   1.430       .  A
C2622      C2623   1.422       .  A
C2623      C2625   1.399       .  A
C2623      C2624   1.403       .  A
C2624      H2635   1.085       .  S
C2625      C2626   1.389       .  A
C2625      H2636   1.084       .  S
C2626      C2627   1.399       .  A
C2626      H2637   1.084       .  S
C2627      C2628   1.423       .  A
C2627      C2632   1.404       .  A
C2628      C2629   1.416       .  A
C2629      C2630   1.398       .  A
C2629      H2638   1.078       .  S
C2630      C2631   1.399       .  A
C2630      H2639   1.084       .  S
C2631      C2632   1.399       .  A
C2632      H2640   1.085       .  S
C2641      C2642   1.400       .  A
C2641      C2646   1.399       .  A
C2642      C2643   1.400   1_455  A
C2642      H2655   1.084       .  S
C2643      C2644   1.415       .  A
C2643      H2656   1.078       .  S
C2644      C2650   1.436   1_565  A
C2644      C2645   1.425   1_655  A
C2645      C2647   1.399   1_465  A
C2645      C2646   1.410       .  A
C2646      H2657   1.085       .  S
C2647      C2648   1.390       .  A
C2647      H2658   1.084   1_655  S
C2648      C2649   1.400       .  A
C2648      H2659   1.084       .  S
C2649      C2650   1.421       .  A
C2649      C2654   1.406       .  A
C2650      C2651   1.418       .  A
C2651      C2652   1.403       .  A
C2651      H2660   1.078       .  S
C2652      C2653   1.402       .  A
C2652      H2661   1.083       .  S
C2653      C2654   1.405       .  A
C2654      H2662   1.085       .  S
C2663      C2664   1.401       .  A
C2663      C2668   1.402       .  A
C2664      C2665   1.390       .  A
C2664      H2677   1.083       .  S
C2665      C2666   1.412   1_655  A
C2665      H2678   1.078       .  S
C2666      C2672   1.424       .  A
C2666      C2667   1.422       .  A
C2667      C2669   1.400       .  A
C2667      C2668   1.403   1_455  A
C2668      H2679   1.084       .  S
C2669      C2670   1.389       .  A
C2669      H2680   1.084       .  S
C2670      C2671   1.400       .  A
C2670      H2681   1.085       .  S
C2671      C2672   1.422       .  A
C2671      C2676   1.400       .  A
C2672      C2673   1.416       .  A
C2673      C2674   1.392       .  A
C2673      H2682   1.078       .  S
C2674      C2675   1.395       .  A
C2674      H2683   1.083       .  S
C2675      C2676   1.399       .  A
C2676      H2684   1.086       .  S
C2685      C2686   1.400       .  A
C2685      C2690   1.402       .  A
C2686      C2687   1.400       .  A
C2686      H2699   1.083       .  S
C2687      C2688   1.417       .  A
C2687      H2700   1.078       .  S
C2688      C2694   1.431       .  A
C2688      C2689   1.421       .  A
C2689      C2691   1.399       .  A
C2689      C2690   1.403       .  A
C2690      H2701   1.085       .  S
C2691      C2692   1.389       .  A
C2691      H2702   1.084       .  S
C2692      C2693   1.398       .  A
C2692      H2703   1.084       .  S
C2693      C2694   1.425       .  A
C2693      C2698   1.407       .  A
C2694      C2695   1.414       .  A
C2695      C2696   1.396       .  A
C2695      H2704   1.078       .  S
C2696      C2697   1.401       .  A
C2696      H2705   1.084       .  S
C2697      C2698   1.398       .  A
C2698      H2706   1.085       .  S
C2707      C2708   1.400       .  A
C2707      C2712   1.400       .  A
C2708      C2709   1.392       .  A
C2708      H2721   1.083       .  S
C2709      C2710   1.414       .  A
C2709      H2722   1.077       .  S
C2710      C2716   1.422       .  A
C2710      C2711   1.421       .  A
C2711      C2713   1.399       .  A
C2711      C2712   1.399       .  A
C2712      H2723   1.085       .  S
C2713      C2714   1.388       .  A
C2713      H2724   1.084       .  S
C2714      C2715   1.398       .  A
C2714      H2725   1.084       .  S
C2715      C2716   1.421       .  A
C2715      C2720   1.399       .  A
C2716      C2717   1.413       .  A
C2717      C2718   1.392       .  A
C2717      H2726   1.078       .  S
C2718      C2719   1.398       .  A
C2718      H2727   1.084       .  S
C2719      C2720   1.398       .  A
C2720      H2728   1.085       .  S
C2729      C2730   1.401       .  A
C2729      C2734   1.398       .  A
C2730      C2731   1.402       .  A
C2730      H2743   1.084       .  S
C2731      C2732   1.415       .  A
C2731      H2744   1.078       .  S
C2732      C2738   1.436       .  A
C2732      C2733   1.426       .  A
C2733      C2735   1.398       .  A
C2733      C2734   1.408       .  A
C2734      H2745   1.085       .  S
C2735      C2736   1.388       .  A
C2735      H2746   1.084       .  S
C2736      C2737   1.400       .  A
C2736      H2747   1.084       .  S
C2737      C2738   1.420       .  A
C2737      C2742   1.402       .  A
C2738      C2739   1.421       .  A
C2739      C2740   1.407       .  A
C2739      H2748   1.078       .  S
C2740      C2741   1.399       .  A
C2740      H2749   1.083       .  S
C2741      C2742   1.404       .  A
C2742      H2750   1.085       .  S
C2751      C2752   1.401       .  A
C2751      C2756   1.403   1_554  A
C2752      C2753   1.409       .  A
C2752      H2765   1.083       .  S
C2753      C2754   1.421   1_565  A
C2753      H2766   1.078   1_565  S
C2754      C2760   1.440       .  A
C2754      C2755   1.421   1_544  A
C2755      C2757   1.400       .  A
C2755      C2756   1.406       .  A
C2756      H2767   1.085       .  S
C2757      C2758   1.390   1_565  A
C2757      H2768   1.084       .  S
C2758      C2759   1.399       .  A
C2758      H2769   1.084       .  S
C2759      C2760   1.425   1_556  A
C2759      C2764   1.411       .  A
C2760      C2761   1.415       .  A
C2761      C2762   1.404       .  A
C2761      H2770   1.078       .  S
C2762      C2763   1.405       .  A
C2762      H2771   1.083       .  S
C2763      C2764   1.402   1_554  A
C2764      H2772   1.085       .  S
C2773      C2774   1.401   1_556  A
C2773      C2778   1.399       .  A
C2774      C2775   1.406       .  A
C2774      H2787   1.083       .  S
C2775      C2776   1.418   1_554  A
C2775      H2788   1.078       .  S
C2776      C2782   1.440       .  A
C2776      C2777   1.425       .  A
C2777      C2779   1.399       .  A
C2777      C2778   1.409       .  A
C2778      H2789   1.085       .  S
C2779      C2780   1.390       .  A
C2779      H2790   1.084       .  S
C2780      C2781   1.400       .  A
C2780      H2791   1.084       .  S
C2781      C2782   1.422       .  A
C2781      C2786   1.408       .  A
C2782      C2783   1.419   1_556  A
C2783      C2784   1.408       .  A
C2783      H2792   1.078       .  S
C2784      C2785   1.404   1_454  A
C2784      H2793   1.083       .  S
C2785      C2786   1.405   1_655  A
C2786      H2794   1.085   1_455  S
C2795      C2796   1.399       .  A
C2795      C2800   1.399       .  A
C2796      C2797   1.396       .  A
C2796      H2809   1.084       .  S
C2797      C2798   1.415       .  A
C2797      H2810   1.078       .  S
C2798      C2804   1.428       .  A
C2798      C2799   1.422       .  A
C2799      C2801   1.399       .  A
C2799      C2800   1.403       .  A
C2800      H2811   1.085       .  S
C2801      C2802   1.389       .  A
C2801      H2812   1.084       .  S
C2802      C2803   1.399       .  A
C2802      H2813   1.084       .  S
C2803      C2804   1.423       .  A
C2803      C2808   1.403       .  A
C2804      C2805   1.415       .  A
C2805      C2806   1.396       .  A
C2805      H2814   1.077       .  S
C2806      C2807   1.399       .  A
C2806      H2815   1.084       .  S
C2807      C2808   1.400       .  A
C2808      H2816   1.085       .  S
