geometry optimzed in LAMMPS
_audit_creation_date              2020-12-01 
_audit_creation_method            'lammps2cif' 
_symmetry_space_group_name_H-M    'P1' 
_symmetry_Int_Tables_number       1 
_symmetry_cell_setting            triclinic 
loop_ 
_symmetry_equiv_pos_as_xyz 
  x,y,z 
_cell_length_a                    32.16717774 
_cell_length_b                    28.27766413081344 
_cell_length_c                    67.70385359502158 
_cell_angle_alpha                 89.83452872220742 
_cell_angle_beta                  90.0057664792855 
_cell_angle_gamma                 89.95623123842377 
loop_ 
_atom_site_label 
_atom_site_type_symbol 
_atom_site_fract_x 
_atom_site_fract_y 
_atom_site_fract_z 
_atom_site_charge 
Fe1        Fe  0.98206128  0.23803471  0.44026234     1.65800
Fe2        Fe  0.95557795  0.12391723  0.44435784     1.73200
Fe3        Fe  0.94673389  0.19511412  0.48380438     1.54400
O4          O  0.00492102  0.22103862  0.49008977    -0.81900
O5          O  0.90444354  0.10586770  0.46183721    -0.80200
O6          O  0.01564870  0.26701366  0.46379389    -0.84400
O7          O  0.93219123  0.27926417  0.44707420    -0.79300
O8          O  0.96651093  0.12693248  0.49184539    -0.81000
O9          O  0.91658903  0.14953116  0.42321084    -0.83800
C10         C  0.91899274  0.29058450  0.46406159     0.97000
C11         C  0.02375846  0.25480358  0.48155535     1.04400
O12         O  0.96097975  0.18610275  0.45611534    -1.12800
O13         O  0.00688798  0.13090650  0.42581238    -0.75200
O14         O  0.03443923  0.20038875  0.43310929    -0.78700
O15         O  0.92453012  0.26431151  0.47921264    -0.79400
C16         C  0.03792826  0.15855053  0.42669552     0.95900
O17         O  0.94967698  0.21599740  0.41483905    -0.77300
O18         O  0.99460553  0.09591707  0.46485901    -0.82500
C19         C  0.88075282  0.12660464  0.47415467     0.98500
C20         C  0.98589896  0.09371980  0.48303324     1.04400
O21         O  0.88771476  0.16880111  0.47965175    -0.78200
C22         C  0.92263319  0.18388270  0.41148512     1.02700
Fe23       Fe  0.76429951  0.23618961  0.31191475     1.65800
Fe24       Fe  0.78928510  0.12238447  0.30709821     1.73200
Fe25       Fe  0.80099000  0.19603630  0.26840002     1.54400
O26         O  0.74381063  0.22409938  0.26172711    -0.81900
O27         O  0.84068343  0.10429616  0.28983051    -0.80200
O28         O  0.73349852  0.26870643  0.28830924    -0.84400
O29         O  0.81581522  0.27500604  0.30644878    -0.79300
O30         O  0.78035379  0.12867641  0.25942747    -0.81000
O31         O  0.82810155  0.14598105  0.32875507    -0.83800
C32         C  0.83052574  0.28778631  0.28995638     0.97000
C33         C  0.72612139  0.25851608  0.27031147     1.04400
O34         O  0.78517769  0.18515205  0.29578108    -1.12800
O35         O  0.73701890  0.12958204  0.32515456    -0.75200
O36         O  0.71071120  0.19978955  0.31769187    -0.78700
O37         O  0.82427240  0.26428716  0.27413901    -0.79400
C38         C  0.70634625  0.15790107  0.32397336     0.95900
O39         O  0.79423460  0.21141094  0.33753358    -0.77300
O40         O  0.75071130  0.09697848  0.28599903    -0.82500
C41         C  0.86497385  0.12546342  0.27784989     0.98500
C42         C  0.75982777  0.09559665  0.26786446     1.04400
O43         O  0.85917864  0.16834003  0.27304707    -0.78200
C44         C  0.82176442  0.17969661  0.34068629     1.02700
Fe45       Fe  0.51288294  0.76415745  0.06118066     1.65800
Fe46       Fe  0.54046236  0.87756417  0.05806469     1.73200
Fe47       Fe  0.54744846  0.80806165  0.01790203     1.54400
O48         O  0.57032412  0.73936608  0.02239278    -0.81900
O49         O  0.50219184  0.90845692  0.03786928    -0.80200
O50         O  0.56471583  0.72568040  0.05482660    -0.84400
O51         O  0.48237760  0.73305165  0.03724773    -0.79300
O52         O  0.60628406  0.83387950  0.02208329    -0.81000
O53         O  0.48825237  0.86931511  0.07630259    -0.83800
C54         C  0.47415104  0.74466180  0.01947145     0.97000
C55         C  0.57864900  0.71520675  0.03784565     1.04400
O56         O  0.53362648  0.81653094  0.04559074    -1.12800
O57         O  0.58011548  0.84899096  0.07863365    -0.75200
O58         O  0.54209346  0.78665758  0.08736172    -0.78700
O59         O  0.48967306  0.78132438  0.01153843    -0.79400
C60         C  0.57205266  0.81528440  0.09037987     0.95900
O61         O  0.45965656  0.80118437  0.06743735    -0.77300
O62         O  0.59154874  0.89613275  0.04070584    -0.82500
C63         C  0.50976763  0.91039552  0.01953185     0.98500
C64         C  0.61405157  0.87554932  0.02786796     1.04400
O65         O  0.52742172  0.87646973  0.01034229    -0.78200
C66         C  0.45657422  0.84259430  0.07446474     1.02700
Fe67       Fe  0.73167359  0.76763258  0.19090801     1.65800
Fe68       Fe  0.70395307  0.88127434  0.19269748     1.73200
Fe69       Fe  0.69435465  0.81312640  0.23324167     1.54400
O70         O  0.67127957  0.74422579  0.22904429    -0.81900
O71         O  0.74202141  0.91215863  0.21282596    -0.80200
O72         O  0.67999269  0.72907821  0.19696374    -0.84400
O73         O  0.76157135  0.73766912  0.21555511    -0.79300
O74         O  0.63590798  0.83912390  0.22782708    -0.81000
O75         O  0.75648973  0.87186956  0.17478696    -0.83800
C76         C  0.76852793  0.75005596  0.23337429     0.97000
C77         C  0.66456987  0.71915929  0.21370135     1.04400
O78         O  0.71003052  0.82054978  0.20574660    -1.12800
O79         O  0.66480737  0.85215683  0.17220960    -0.75200
O80         O  0.70295000  0.78925066  0.16429523    -0.78700
O81         O  0.75163148  0.78637933  0.24086031    -0.79400
C82         C  0.67293352  0.81777186  0.16088339     0.95900
O83         O  0.78491931  0.80438728  0.18476145    -0.77300
O84         O  0.65241394  0.90147595  0.20957594    -0.82500
C85         C  0.73405360  0.91459029  0.23109443     0.98500
C86         C  0.62885017  0.88106501  0.22207291     1.04400
O87         O  0.71477265  0.88169879  0.24032731    -0.78200
C88         C  0.78810604  0.84522651  0.17714825     1.02700
Fe89       Fe  0.26589972  0.23846819  0.81086767     1.65800
Fe90       Fe  0.28733197  0.12307855  0.80708854     1.73200
Fe91       Fe  0.30113657  0.19434264  0.76780667     1.54400
O92         O  0.24410801  0.22225187  0.76091471    -0.81900
O93         O  0.33880562  0.10315684  0.79033674    -0.80200
O94         O  0.23478439  0.26922100  0.78698051    -0.84400
O95         O  0.31803157  0.27594379  0.80445167    -0.79300
O96         O  0.28057133  0.12696005  0.75954580    -0.81000
O97         O  0.32638164  0.14627391  0.82873609    -0.83800
C98         C  0.33273493  0.28675702  0.78769732     0.97000
C99         C  0.22665292  0.25716089  0.76924746     1.04400
O100        O  0.28501284  0.18556504  0.79528484    -1.12800
O101        O  0.23524016  0.13255974  0.82492312    -0.75200
O102        O  0.21160514  0.20414728  0.81777570    -0.78700
O103        O  0.32507622  0.26260985  0.77225328    -0.79400
C104        C  0.20582414  0.16256509  0.82419473     0.95900
O105        O  0.29651818  0.21494949  0.83647806    -0.77300
O106        O  0.24851585  0.09752835  0.78590473    -0.82500
C107        C  0.36414206  0.12362682  0.77867213     0.98500
C108        C  0.25925702  0.09474617  0.76799083     1.04400
O109        O  0.35883932  0.16622264  0.77321481    -0.78200
C110        C  0.32247439  0.18177262  0.83999418     1.02700
Fe111      Fe  0.47941653  0.23722877  0.94060220     1.65800
Fe112      Fe  0.45535960  0.12242600  0.94418712     1.73200
Fe113      Fe  0.44199469  0.19308001  0.98350681     1.54400
O114        O  0.49856411  0.22167699  0.99081717    -0.81900
O115        O  0.40402134  0.10230697  0.96095993    -0.80200
O116        O  0.50993108  0.26792874  0.96470256    -0.84400
O117        O  0.42786500  0.27675901  0.94652574    -0.79300
O118        O  0.46335950  0.12576563  0.99183823    -0.81000
O119        O  0.41692585  0.14707099  0.92259504    -0.83800
C120        C  0.41323531  0.28739474  0.96334488     0.97000
C121        C  0.51656573  0.25659876  0.98269979     1.04400
O122        O  0.45851273  0.18464591  0.95609754    -1.12800
O123        O  0.50728728  0.13145946  0.92626905    -0.75200
O124        O  0.53338153  0.20104102  0.93449074    -0.78700
O125        O  0.41816719  0.26109764  0.97851127    -0.79400
C126        C  0.53790890  0.15948101  0.92785248     0.95900
O127        O  0.44979822  0.21388939  0.91460494    -0.77300
O128        O  0.49375119  0.09548251  0.96525678    -0.82500
C129        C  0.37919798  0.12198057  0.97303793     0.98500
C130        C  0.48392944  0.09302143  0.98332293     1.04400
O131        O  0.38421677  0.16461268  0.97835571    -0.78200
C132        C  0.42343330  0.18128209  0.91085942     1.02700
Fe133      Fe  0.23119509  0.76785779  0.69109136     1.65800
Fe134      Fe  0.20837489  0.88246269  0.69479147     1.73200
Fe135      Fe  0.19679277  0.81168364  0.73418844     1.54400
O136        O  0.17404019  0.74259536  0.72974081    -0.81900
O137        O  0.24857673  0.90848271  0.71526555    -0.80200
O138        O  0.17886084  0.73099097  0.69735390    -0.84400
O139        O  0.26218168  0.73644037  0.71513981    -0.79300
O140        O  0.13869316  0.83913237  0.72921128    -0.81000
O141        O  0.25916182  0.87216554  0.67616636    -0.83800
C142        C  0.27083464  0.74893431  0.73280745     0.97000
C143        C  0.16721486  0.71777910  0.71434495     1.04400
O144        O  0.21190135  0.82041936  0.70669699    -1.12800
O145        O  0.16805147  0.85816294  0.67394916    -0.75200
O146        O  0.20102876  0.79208076  0.66529908    -0.78700
O147        O  0.25418457  0.78476939  0.74076949    -0.79400
C148        C  0.17383330  0.82422856  0.66206580     0.95900
O149        O  0.28527587  0.80249033  0.68460046    -0.77300
O150        O  0.15811306  0.90282919  0.71241367    -0.82500
C151        C  0.23854249  0.91156841  0.73326614     0.98500
C152        C  0.13360433  0.88220746  0.72446821     1.04400
O153        O  0.21742360  0.87952494  0.74200258    -0.78200
C154        C  0.28972895  0.84382416  0.67773393     1.02700
Fe155      Fe  0.01474517  0.76778655  0.56203731     1.65800
Fe156      Fe  0.04224167  0.88136206  0.55757645     1.73200
Fe157      Fe  0.05053962  0.80905418  0.51841180     1.54400
O158        O  0.07190823  0.73968089  0.52342901    -0.81900
O159        O  0.00388903  0.90932499  0.53683557    -0.80200
O160        O  0.06496668  0.72675331  0.55572865    -0.84400
O161        O  0.98222668  0.73731676  0.53842758    -0.79300
O162        O  0.10977837  0.83418560  0.52248921    -0.81000
O163        O  0.99031277  0.87566869  0.57586397    -0.83800
C164        C  0.97452006  0.74902198  0.52057138     0.97000
C165        C  0.07791610  0.71437173  0.53882442     1.04400
O166        O  0.03629342  0.81906553  0.54603940    -1.12800
O167        O  0.08064602  0.85595735  0.57907063    -0.75200
O168        O  0.04638660  0.79036829  0.58754008    -0.78700
O169        O  0.99221667  0.78384601  0.51226127    -0.79400
C170        C  0.07391771  0.82191244  0.59086073     0.95900
O171        O  0.96232337  0.80621611  0.56868225    -0.77300
O172        O  0.09384449  0.89767065  0.54015462    -0.82500
C173        C  0.01264709  0.91108808  0.51866721     0.98500
C174        C  0.11727666  0.87624792  0.52791889     1.04400
O175        O  0.03170494  0.87745021  0.50996159    -0.78200
C176        C  0.95907934  0.84823336  0.57501621     1.02700
Fe177      Fe  0.23002489  0.98705822  0.06165821     1.65800
Fe178      Fe  0.20485281  0.87308117  0.05842015     1.73200
Fe179      Fe  0.19424126  0.94340560  0.01872698     1.54400
O180        O  0.17235801  0.01282983  0.02325339    -0.81900
O181        O  0.24323008  0.84495923  0.03783542    -0.80200
O182        O  0.17770176  0.02413368  0.05565246    -0.84400
O183        O  0.25986702  0.01848641  0.03740111    -0.79300
O184        O  0.13557711  0.91748466  0.02370544    -0.81000
O185        O  0.25730408  0.88194343  0.07631618    -0.83800
C186        C  0.26793433  0.00600083  0.01971277     0.97000
C187        C  0.16561034  0.03741709  0.03872484     1.04400
O188        O  0.20953516  0.93467754  0.04624064    -1.12800
O189        O  0.16624357  0.89891939  0.07960452    -0.75200
O190        O  0.20101213  0.96401008  0.08784270    -0.78700
O191        O  0.25201349  0.96941605  0.01199847    -0.79400
C192        C  0.17337628  0.93270053  0.09136865     0.95900
O193        O  0.28403454  0.95135289  0.06783072    -0.77300
O194        O  0.15300845  0.85432259  0.04138618    -0.82500
C195        C  0.23367054  0.84202275  0.01980056     0.98500
C196        C  0.12895998  0.87517564  0.02914299     1.04400
O197        O  0.21372100  0.87490470  0.01091948    -0.78200
C198        C  0.28821178  0.90982985  0.07468575     1.02700
Fe199      Fe  0.01539279  0.98616303  0.19066671     1.65800
Fe200      Fe  0.03912501  0.87176546  0.19560930     1.73200
Fe201      Fe  0.04986544  0.94455290  0.23433787     1.54400
O202        O  0.07277720  0.01310356  0.22900392    -0.81900
O203        O  0.99958822  0.84609082  0.21640851    -0.80200
O204        O  0.06748392  0.02380199  0.19655099    -0.84400
O205        O  0.98430316  0.01897965  0.21419553    -0.79300
O206        O  0.10824888  0.91685044  0.23023267    -0.81000
O207        O  0.98741607  0.88015341  0.17711585    -0.83800
C208        C  0.97573327  0.00729067  0.23196008     0.97000
C209        C  0.07975219  0.03724118  0.21338615     1.04400
O210        O  0.03509741  0.93436917  0.20686460    -1.12800
O211        O  0.07884270  0.89553209  0.17426629    -0.75200
O212        O  0.04561027  0.96133807  0.16523174    -0.78700
O213        O  0.99231957  0.97182343  0.24031846    -0.79400
C214        C  0.07297488  0.92940255  0.16226313     0.95900
O215        O  0.96154520  0.95065902  0.18435808    -0.77300
O216        O  0.08998864  0.85292989  0.21341929    -0.82500
C217        C  0.00852802  0.84457805  0.23457362     0.98500
C218        C  0.11393382  0.87383608  0.22564037     1.04400
O219        O  0.02911597  0.87733855  0.24303572    -0.78200
C220        C  0.95699062  0.90894323  0.17792318     1.02700
Fe221      Fe  0.98115870  0.51807221  0.31217412     1.65800
Fe222      Fe  0.95537977  0.63194787  0.31017378     1.73200
Fe223      Fe  0.94186395  0.56362902  0.27014902     1.54400
O224        O  0.99814116  0.53533731  0.26190880    -0.81900
O225        O  0.90374785  0.65387357  0.29352628    -0.80200
O226        O  0.00935892  0.48758828  0.28750475    -0.84400
O227        O  0.92844008  0.48088735  0.30698574    -0.79300
O228        O  0.96316748  0.63143990  0.26254499    -0.81000
O229        O  0.91650454  0.60373299  0.33104201    -0.83800
C230        C  0.91293525  0.46981387  0.29042447     0.97000
C231        C  0.01580207  0.49962408  0.26959774     1.04400
O232        O  0.95956655  0.57110165  0.29734388    -1.12800
O233        O  0.00827662  0.62106793  0.32784672    -0.75200
O234        O  0.03531383  0.55329788  0.31764336    -0.78700
O235        O  0.91818895  0.49522335  0.27499520    -0.79400
C236        C  0.03932384  0.59352385  0.32559009     0.95900
O237        O  0.95462468  0.54054081  0.33885772    -0.77300
O238        O  0.99332125  0.66109795  0.28948499    -0.82500
C239        C  0.87901873  0.63424585  0.28134935     0.98500
C240        C  0.98383759  0.66373056  0.27136343     1.04400
O241        O  0.88421959  0.59157906  0.27614141    -0.78200
C242        C  0.92496689  0.56924377  0.34234918     1.02700
Fe243      Fe  0.76631528  0.51576685  0.44157953     1.65800
Fe244      Fe  0.79088351  0.63043397  0.44393686     1.73200
Fe245      Fe  0.79989470  0.56195735  0.48428551     1.54400
O246        O  0.74222484  0.53544650  0.49080612    -0.81900
O247        O  0.84172024  0.65070855  0.46129655    -0.80200
O248        O  0.73611613  0.48507634  0.46582731    -0.84400
O249        O  0.81926279  0.47929429  0.44799278    -0.79300
O250        O  0.77923634  0.63030421  0.49139292    -0.81000
O251        O  0.83101209  0.60219507  0.42363935    -0.83800
C252        C  0.83282721  0.46913020  0.46506134     0.97000
C253        C  0.72655275  0.49863509  0.48320569     1.04400
O254        O  0.78556591  0.56942124  0.45668950    -1.12800
O255        O  0.73880890  0.61980992  0.42575414    -0.75200
O256        O  0.71250877  0.55062314  0.43500337    -0.78700
O257        O  0.82341157  0.49313184  0.48036887    -0.79400
C258        C  0.70812069  0.59155824  0.42760264     0.95900
O259        O  0.79470888  0.53831373  0.41532768    -0.77300
O260        O  0.75201375  0.66122009  0.46399433    -0.82500
C261        C  0.86485867  0.63055141  0.47410577     0.98500
C262        C  0.76012188  0.66346100  0.48227896     1.04400
O263        O  0.85833121  0.58828874  0.47953676    -0.78200
C264        C  0.82406834  0.56763460  0.41224268     1.02700
Fe265      Fe  0.51448550  0.98914609  0.69149796     1.65800
Fe266      Fe  0.54106052  0.87584494  0.69433839     1.73200
Fe267      Fe  0.55101596  0.94544474  0.73421104     1.54400
O268        O  0.57273515  0.01475634  0.72936877    -0.81900
O269        O  0.50321881  0.84629697  0.71495385    -0.80200
O270        O  0.56696003  0.02614188  0.69694573    -0.84400
O271        O  0.48555221  0.02039256  0.71581565    -0.79300
O272        O  0.60948543  0.91983110  0.72900196    -0.81000
O273        O  0.48810227  0.88498672  0.67658916    -0.83800
C274        C  0.47746603  0.00796396  0.73350764     0.97000
C275        C  0.57941461  0.03926185  0.71380495     1.04400
O276        O  0.53553830  0.93681821  0.70679702    -1.12800
O277        O  0.58003501  0.90371342  0.67335534    -0.75200
O278        O  0.54169850  0.96619104  0.66499431    -0.78700
O279        O  0.49340146  0.97132428  0.74124693    -0.79400
C280        C  0.57142274  0.93744250  0.66170214     0.95900
O281        O  0.46094879  0.95330179  0.68614995    -0.77300
O282        O  0.59252926  0.85670364  0.71142694    -0.82500
C283        C  0.51182749  0.84407505  0.73316923     0.98500
C284        C  0.61584107  0.87732352  0.72395333     1.04400
O285        O  0.53148054  0.87702684  0.74205992    -0.78200
C286        C  0.45697789  0.91249770  0.67878907     1.02700
Fe287      Fe  0.73143329  0.98933397  0.56238499     1.65800
Fe288      Fe  0.70686382  0.87495189  0.55953510     1.73200
Fe289      Fe  0.69540864  0.94490484  0.51966532     1.54400
O290        O  0.67256125  0.01364942  0.52425261    -0.81900
O291        O  0.74468095  0.84532385  0.53873037    -0.80200
O292        O  0.67837128  0.02550287  0.55658589    -0.84400
O293        O  0.76047553  0.02115915  0.53802709    -0.79300
O294        O  0.63734524  0.91773602  0.52512241    -0.81000
O295        O  0.75975254  0.88521885  0.57720537    -0.83800
C296        C  0.76825301  0.00956959  0.52020382     0.97000
C297        C  0.66597575  0.03843990  0.53965641     1.04400
O298        O  0.71155008  0.93635840  0.54705232    -1.12800
O299        O  0.66755764  0.90208813  0.58052308    -0.75200
O300        O  0.70364674  0.96606287  0.58880410    -0.78700
O301        O  0.75243856  0.97291404  0.51240877    -0.79400
C302        C  0.67450807  0.93645038  0.59203744     0.95900
O303        O  0.78585831  0.95477789  0.56838589    -0.77300
O304        O  0.65520121  0.85476190  0.54276486    -0.82500
C305        C  0.73562542  0.84358360  0.52051927     0.98500
C306        C  0.63118624  0.87526024  0.53044835     1.04400
O307        O  0.71587163  0.87688754  0.51180848    -0.78200
C308        C  0.79041554  0.91354226  0.57545090     1.02700
Fe309      Fe  0.48126617  0.51685693  0.81180721     1.65800
Fe310      Fe  0.45679859  0.63150426  0.80898109     1.73200
Fe311      Fe  0.44601398  0.56212608  0.76905607     1.54400
O312        O  0.50354705  0.53601609  0.76207998    -0.81900
O313        O  0.40522249  0.65137108  0.79178883    -0.80200
O314        O  0.51188113  0.48677572  0.78748698    -0.84400
O315        O  0.42913504  0.47961397  0.80545023    -0.79300
O316        O  0.46603831  0.63055409  0.76147105    -0.81000
O317        O  0.41799802  0.60525909  0.83021926    -0.83800
C318        C  0.41679482  0.46732226  0.78846014     0.97000
C319        C  0.52006539  0.49970274  0.76981326     1.04400
O320        O  0.46122822  0.57001732  0.79660613    -1.12800
O321        O  0.50934552  0.62198621  0.82683128    -0.75200
O322        O  0.53510381  0.55221118  0.81830775    -0.78700
O323        O  0.42363540  0.49269202  0.77316857    -0.79400
C324        C  0.53986577  0.59350107  0.82516073     0.95900
O325        O  0.45145855  0.53872264  0.83796908    -0.77300
O326        O  0.49535451  0.66005494  0.78846954    -0.82500
C327        C  0.38159091  0.63074138  0.77934939     0.98500
C328        C  0.48631717  0.66298652  0.77035666     1.04400
O329        O  0.38773996  0.58813948  0.77436795    -0.78200
C330        C  0.42413739  0.57032076  0.84165340     1.02700
Fe331      Fe  0.26289820  0.51428716  0.94111433     1.65800
Fe332      Fe  0.28681684  0.62902880  0.94461029     1.73200
Fe333      Fe  0.29583988  0.55902186  0.98446234     1.54400
O334        O  0.23794102  0.53280848  0.99046024    -0.81900
O335        O  0.33763566  0.64801380  0.96201915    -0.80200
O336        O  0.23102516  0.48354633  0.96505497    -0.84400
O337        O  0.31487415  0.47656902  0.94803197    -0.79300
O338        O  0.27545936  0.62709493  0.99203686    -0.81000
O339        O  0.32672083  0.60345913  0.92386264    -0.83800
C340        C  0.32797453  0.46604625  0.96513867     0.97000
C341        C  0.22185100  0.49657933  0.98258437     1.04400
O342        O  0.28207232  0.56722500  0.95672731    -1.12800
O343        O  0.23563947  0.61994789  0.92608763    -0.75200
O344        O  0.20918149  0.55001405  0.93392159    -0.78700
O345        O  0.31888251  0.49014797  0.98043907    -0.79400
C346        C  0.20496261  0.59172530  0.92722561     0.95900
O347        O  0.29416854  0.53708206  0.91536627    -0.77300
O348        O  0.24733713  0.65744424  0.96486389    -0.82500
C349        C  0.36153339  0.62742352  0.97434266     0.98500
C350        C  0.25581838  0.65998803  0.98305974     1.04400
O351        O  0.35458453  0.58548317  0.98021882    -0.78200
C352        C  0.32124401  0.56926289  0.91210657     1.02700
Fe353      Fe  0.72861356  0.48616959  0.06207925     1.65800
Fe354      Fe  0.70074240  0.37280364  0.05937337     1.73200
Fe355      Fe  0.69397944  0.44214520  0.01912981     1.54400
O356        O  0.67184612  0.51156763  0.02336246    -0.81900
O357        O  0.73929120  0.34163719  0.03948417    -0.80200
O358        O  0.67699180  0.52461760  0.05573575    -0.84400
O359        O  0.75953170  0.51687897  0.03805529    -0.79300
O360        O  0.63496729  0.41699185  0.02354421    -0.81000
O361        O  0.75280228  0.38140066  0.07770224    -0.83800
C362        C  0.76863704  0.50383408  0.02056968     0.97000
C363        C  0.66477646  0.53676089  0.03865001     1.04400
O364        O  0.70774386  0.43375782  0.04674784    -1.12800
O365        O  0.66105941  0.40183781  0.07965462    -0.75200
O366        O  0.69949242  0.46380834  0.08826809    -0.78700
O367        O  0.75225373  0.46766488  0.01274307    -0.79400
C368        C  0.66929621  0.43550784  0.09132085     0.95900
O369        O  0.78148118  0.44919416  0.06831923    -0.77300
O370        O  0.64981667  0.35399642  0.04178902    -0.82500
C371        C  0.73191824  0.33964354  0.02113824     0.98500
C372        C  0.62750280  0.37483016  0.02885062     1.04400
O373        O  0.71381368  0.37341552  0.01192699    -0.78200
C374        C  0.78453730  0.40794214  0.07553418     1.02700
Fe375      Fe  0.51258520  0.48976111  0.19167319     1.65800
Fe376      Fe  0.53934781  0.37636306  0.19445959     1.73200
Fe377      Fe  0.54932823  0.44567373  0.23448033     1.54400
O378        O  0.57272310  0.51449106  0.22969002    -0.81900
O379        O  0.50044089  0.34721221  0.21468776    -0.80200
O380        O  0.56469732  0.52761552  0.19744471    -0.84400
O381        O  0.48275429  0.52093326  0.21585758    -0.79300
O382        O  0.60757417  0.41829484  0.22964201    -0.81000
O383        O  0.48742560  0.38588164  0.17612533    -0.83800
C384        C  0.47542952  0.50940627  0.23374496     0.97000
C385        C  0.57870096  0.53959895  0.21420488     1.04400
O386        O  0.53378845  0.43740857  0.20701603    -1.12800
O387        O  0.57926741  0.40428405  0.17396045    -0.75200
O388        O  0.54096097  0.46674767  0.16542103    -0.78700
O389        O  0.49222561  0.47339384  0.24164001    -0.79400
C390        C  0.57080242  0.43799512  0.16227205     0.95900
O391        O  0.45904118  0.45349020  0.18576077    -0.77300
O392        O  0.59001550  0.35586866  0.21180038    -0.82500
C393        C  0.50896439  0.34454682  0.23290957     0.98500
C394        C  0.61363819  0.37585312  0.22432961     1.04400
O395        O  0.52823629  0.37751177  0.24201985    -0.78200
C396        C  0.45586631  0.41271762  0.17821124     1.02700
Fe397      Fe  0.26562045  0.01700588  0.43995859     1.65800
Fe398      Fe  0.28834743  0.13183291  0.44427536     1.73200
Fe399      Fe  0.29952491  0.05982512  0.48346831     1.54400
O400        O  0.24279092  0.03052278  0.48962755    -0.81900
O401        O  0.33903926  0.15174898  0.46179666    -0.80200
O402        O  0.23574514  0.98329541  0.46364590    -0.84400
O403        O  0.31831366  0.98017704  0.44589268    -0.79300
O404        O  0.27750883  0.12671750  0.49187477    -0.81000
O405        O  0.32825222  0.10791604  0.42299746    -0.83800
C406        C  0.33246261  0.96887442  0.46271651     0.97000
C407        C  0.22769554  0.99394555  0.48153618     1.04400
O408        O  0.28475784  0.06936266  0.45593327    -1.12800
O409        O  0.23681557  0.12223764  0.42593012    -0.75200
O410        O  0.21115998  0.05189238  0.43375826    -0.78700
O411        O  0.32429889  0.99235494  0.47830986    -0.79400
C412        C  0.20644063  0.09353784  0.42711018     0.95900
O413        O  0.29505791  0.04212202  0.41426972    -0.77300
O414        O  0.24882312  0.15810786  0.46500330    -0.82500
C415        C  0.36305394  0.13140911  0.47416381     0.98500
C416        C  0.25765571  0.15992304  0.48318894     1.04400
O417        O  0.35735460  0.08873226  0.47933384    -0.78200
C418        C  0.32259084  0.07380004  0.41116340     1.02700
Fe419      Fe  0.47759094  0.01593334  0.31012314     1.65800
Fe420      Fe  0.45544625  0.13086439  0.30644164     1.73200
Fe421      Fe  0.44218522  0.06012551  0.26711206     1.54400
O422        O  0.49912991  0.03225283  0.26010686    -0.81900
O423        O  0.40338033  0.15044160  0.28977523    -0.80200
O424        O  0.50712341  0.98419380  0.28591206    -0.84400
O425        O  0.42448128  0.98001607  0.30433432    -0.79300
O426        O  0.46263684  0.12784422  0.25875081    -0.81000
O427        O  0.41709650  0.10727820  0.32832367    -0.83800
C428        C  0.41008309  0.96864337  0.28759813     0.97000
C429        C  0.51532782  0.99603262  0.26811604     1.04400
O430        O  0.45820567  0.06880882  0.29457301    -1.12800
O431        O  0.50825828  0.12100678  0.32392995    -0.75200
O432        O  0.53231222  0.04993580  0.31618779    -0.78700
O433        O  0.41839334  0.99192004  0.27193362    -0.79400
C434        C  0.53798809  0.09138397  0.32269702     0.95900
O435        O  0.44899151  0.03988923  0.33625144    -0.77300
O436        O  0.49372108  0.15707405  0.28528253    -0.82500
C437        C  0.37851417  0.12981242  0.27791377     0.98500
C438        C  0.48331821  0.16032063  0.26734288     1.04400
O439        O  0.38440564  0.08748881  0.27247519    -0.78200
C440        C  0.42305615  0.07289964  0.34002580     1.02700
Fe441      Fe  0.01752971  0.49010932  0.68998879     1.65800
Fe442      Fe  0.04044110  0.37490560  0.69395518     1.73200
Fe443      Fe  0.05034090  0.44567168  0.73346134     1.54400
O444        O  0.07498273  0.51341562  0.72898337    -0.81900
O445        O  0.00070156  0.34747688  0.71437567    -0.80200
O446        O  0.06973339  0.52772621  0.69664123    -0.84400
O447        O  0.98611851  0.52188895  0.71352395    -0.79300
O448        O  0.10829897  0.41736993  0.72929836    -0.81000
O449        O  0.98940605  0.38468977  0.67548771    -0.83800
C450        C  0.97721590  0.51008066  0.73121112     0.97000
C451        C  0.08365916  0.53776439  0.71365559     1.04400
O452        O  0.03646853  0.43714311  0.70580528    -1.12800
O453        O  0.08050496  0.39961480  0.67297076    -0.75200
O454        O  0.04830001  0.46648202  0.66443948    -0.78700
O455        O  0.99317846  0.47407251  0.73946207    -0.79400
C456        C  0.07513585  0.43408991  0.66123433     0.95900
O457        O  0.96344406  0.45460774  0.68346675    -0.77300
O458        O  0.09073418  0.35475440  0.71150780    -0.82500
C459        C  0.00869855  0.34568876  0.73265090     0.98500
C460        C  0.11431995  0.37492987  0.72402115     1.04400
O461        O  0.02842607  0.37861052  0.74144068    -0.78200
C462        C  0.95868613  0.41260876  0.67732618     1.02700
Fe463      Fe  0.23274885  0.48883798  0.56085413     1.65800
Fe464      Fe  0.20921443  0.37387185  0.55809372     1.73200
Fe465      Fe  0.19717564  0.44311123  0.51826750     1.54400
O466        O  0.17222185  0.51106200  0.52275763    -0.81900
O467        O  0.24888346  0.34604264  0.53780473    -0.80200
O468        O  0.17985322  0.52571156  0.55494236    -0.84400
O469        O  0.26176219  0.52075196  0.53650176    -0.79300
O470        O  0.13981374  0.41468836  0.52371758    -0.81000
O471        O  0.26004217  0.38536102  0.57652959    -0.83800
C472        C  0.26943429  0.50844013  0.51876167     0.97000
C473        C  0.16450439  0.53549117  0.53817027     1.04400
O474        O  0.21301725  0.43550853  0.54566008    -1.12800
O475        O  0.16934005  0.40015294  0.57873964    -0.75200
O476        O  0.20424372  0.46519203  0.58706566    -0.78700
O477        O  0.25360501  0.47182442  0.51105382    -0.79400
C478        C  0.17631311  0.43412114  0.59050213     0.95900
O479        O  0.28727402  0.45370765  0.56695971    -0.77300
O480        O  0.15912931  0.35141237  0.54064451    -0.82500
C481        C  0.23922638  0.34273657  0.51974068     0.98500
C482        C  0.13531148  0.37143509  0.52812105     1.04400
O483        O  0.21917511  0.37542014  0.51075290    -0.78200
C484        C  0.29109001  0.41275080  0.57443727     1.02700
Fe485      Fe  0.98114385  0.01761037  0.81165059     1.65800
Fe486      Fe  0.95634017  0.13224285  0.80805384     1.73200
Fe487      Fe  0.94864810  0.06234873  0.76820077     1.54400
O488        O  0.00680041  0.03624945  0.76237297    -0.81900
O489        O  0.90583650  0.15146012  0.79031699    -0.80200
O490        O  0.01345536  0.98721769  0.78799287    -0.84400
O491        O  0.92959536  0.97957633  0.80458541    -0.79300
O492        O  0.96860033  0.13073496  0.76067929    -0.81000
O493        O  0.91627884  0.10610848  0.82869995    -0.83800
C494        C  0.91636158  0.96914017  0.78750699     0.97000
C495        C  0.02297529  0.00020777  0.77050030     1.04400
O496        O  0.96184045  0.07053868  0.79595909    -1.12800
O497        O  0.00735607  0.12322395  0.82670683    -0.75200
O498        O  0.03443180  0.05356242  0.81887401    -0.78700
O499        O  0.92557517  0.99336795  0.77219130    -0.79400
C500        C  0.03822241  0.09518581  0.82554456     0.95900
O501        O  0.94962288  0.04008141  0.83721877    -0.77300
O502        O  0.99596135  0.16097035  0.78796928    -0.82500
C503        C  0.88290826  0.13067811  0.77768193     0.98500
C504        C  0.98739334  0.16389636  0.76979357     1.04400
O505        O  0.88992319  0.08844825  0.77237152    -0.78200
C506        C  0.92195450  0.07160527  0.84039138     1.02700
Fe507      Fe  0.76443311  0.01505710  0.94044248     1.65800
Fe508      Fe  0.78921674  0.12935069  0.94493864     1.73200
Fe509      Fe  0.79853958  0.05675292  0.98410219     1.54400
O510        O  0.74082807  0.02965182  0.99014845    -0.81900
O511        O  0.84044870  0.14710751  0.96240100    -0.80200
O512        O  0.73315394  0.98305135  0.96401088    -0.84400
O513        O  0.81605407  0.97622175  0.94672877    -0.79300
O514        O  0.77846060  0.12449679  0.99262848    -0.81000
O515        O  0.82807514  0.10512643  0.92335220    -0.83800
C516        C  0.82807054  0.96341994  0.96376399     0.97000
C517        C  0.72474252  0.99388339  0.98183813     1.04400
O518        O  0.78440987  0.06682946  0.95647984    -1.12800
O519        O  0.73735704  0.12174883  0.92674441    -0.75200
O520        O  0.71085703  0.05146673  0.93400049    -0.78700
O521        O  0.82110003  0.98813623  0.97914982    -0.79400
C522        C  0.70664117  0.09355556  0.92779044     0.95900
O523        O  0.79478447  0.03911244  0.91485206    -0.77300
O524        O  0.75049026  0.15641604  0.96577165    -0.82500
C525        C  0.86370902  0.12584102  0.97483457     0.98500
C526        C  0.75916762  0.15814091  0.98397306     1.04400
O527        O  0.85706980  0.08329142  0.97986327    -0.78200
C528        C  0.82161343  0.07136400  0.91145706     1.02700
Fe529      Fe  0.97978824  0.73704438  0.94168742     1.65800
Fe530      Fe  0.95459843  0.62266523  0.94466051     1.73200
Fe531      Fe  0.94486034  0.69182483  0.98467258     1.54400
O532        O  0.00207911  0.71933061  0.99140486    -0.81900
O533        O  0.90386817  0.60212378  0.96204704    -0.80200
O534        O  0.01005472  0.76815794  0.96587725    -0.84400
O535        O  0.92741393  0.77455834  0.94800234    -0.79300
O536        O  0.96569167  0.62402654  0.99216533    -0.81000
O537        O  0.91521447  0.64941589  0.92379856    -0.83800
C538        C  0.91283085  0.78439654  0.96490666     0.97000
C539        C  0.01809286  0.75587076  0.98363683     1.04400
O540        O  0.95956632  0.68404437  0.95706076    -1.12800
O541        O  0.00589412  0.63264010  0.92627539    -0.75200
O542        O  0.03377241  0.70102895  0.93519800    -0.78700
O543        O  0.92100636  0.76005504  0.98031517    -0.79400
C544        C  0.03720693  0.65975052  0.92803220     0.95900
O545        O  0.95037681  0.71434639  0.91554104    -0.77300
O546        O  0.99365880  0.59371290  0.96497010    -0.82500
C547        C  0.88047529  0.62205945  0.97473757     0.98500
C548        C  0.98443400  0.59077527  0.98309685     1.04400
O549        O  0.88664551  0.66445012  0.98004562    -0.78200
C550        C  0.92257717  0.68325141  0.91196253     1.02700
Fe551      Fe  0.76644243  0.73881423  0.81126335     1.65800
Fe552      Fe  0.78994121  0.62403678  0.80717817     1.73200
Fe553      Fe  0.80109473  0.69580349  0.76786336     1.54400
O554        O  0.74365391  0.72314052  0.76147126    -0.81900
O555        O  0.84081016  0.60494085  0.78973920    -0.80200
O556        O  0.73448588  0.76972302  0.78760410    -0.84400
O557        O  0.81789530  0.77754620  0.80468819    -0.79300
O558        O  0.78051375  0.62806784  0.75969397    -0.81000
O559        O  0.82944813  0.64797334  0.82854565    -0.83800
C560        C  0.83061798  0.78986452  0.78772109     0.97000
C561        C  0.72628200  0.75804855  0.76982870     1.04400
O562        O  0.78615941  0.68652398  0.79545554    -1.12800
O563        O  0.73835183  0.63250016  0.82549190    -0.75200
O564        O  0.71270311  0.70310425  0.81815540    -0.78700
O565        O  0.82420152  0.76460520  0.77242401    -0.79400
C566        C  0.70802448  0.66131709  0.82456796     0.95900
O567        O  0.79775645  0.71532901  0.83675465    -0.77300
O568        O  0.75056851  0.59771345  0.78643913    -0.82500
C569        C  0.86500946  0.62557819  0.77756921     0.98500
C570        C  0.76017352  0.59529550  0.76837178     1.04400
O571        O  0.85932182  0.66834549  0.77248269    -0.78200
C572        C  0.82423926  0.68259611  0.84015818     1.02700
Fe573      Fe  0.01260061  0.26473269  0.06237292     1.65800
Fe574      Fe  0.03540688  0.37977553  0.05819940     1.73200
Fe575      Fe  0.04812390  0.30832636  0.01913020     1.54400
O576        O  0.07252920  0.24085888  0.02396959    -0.81900
O577        O  0.99646596  0.40607836  0.03716733    -0.80200
O578        O  0.06476663  0.22675444  0.05616097    -0.84400
O579        O  0.98174420  0.23328471  0.03850072    -0.79300
O580        O  0.10575678  0.33667574  0.02416791    -0.81000
O581        O  0.98367532  0.37033234  0.07629972    -0.83800
C582        C  0.97427501  0.24460213  0.02056825     0.97000
C583        C  0.07996275  0.21655337  0.03942561     1.04400
O584        O  0.03221827  0.31731975  0.04656043    -1.12800
O585        O  0.07469391  0.35574917  0.07965400    -0.75200
O586        O  0.04301868  0.28866209  0.08814171    -0.78700
O587        O  0.99157444  0.27970833  0.01228328    -0.79400
C588        C  0.06982012  0.32114788  0.09139546     0.95900
O589        O  0.95823774  0.29993507  0.06877411    -0.77300
O590        O  0.08649892  0.39998723  0.04107903    -0.82500
C591        C  0.00615033  0.40794612  0.01906516     0.98500
C592        C  0.11112028  0.37943851  0.02911047     1.04400
O593        O  0.02663163  0.37505908  0.01068681    -0.78200
C594        C  0.95330212  0.34177832  0.07503144     1.02700
Fe595      Fe  0.22831198  0.26831135  0.19152060     1.65800
Fe596      Fe  0.20462776  0.38338617  0.19530753     1.73200
Fe597      Fe  0.19143526  0.31124033  0.23440309     1.54400
O598        O  0.16808237  0.24302882  0.22924463    -0.81900
O599        O  0.24185004  0.41044049  0.21675361    -0.80200
O600        O  0.17587455  0.23076266  0.19698974    -0.84400
O601        O  0.25779018  0.23629205  0.21567149    -0.79300
O602        O  0.13368451  0.33869387  0.22891026    -0.81000
O603        O  0.25821791  0.37463343  0.17810191    -0.83800
C604        C  0.26524618  0.24795015  0.23351253     0.97000
C605        C  0.16103266  0.21923015  0.21362332     1.04400
O606        O  0.20799070  0.32085100  0.20707696    -1.12800
O607        O  0.16703241  0.35915943  0.17315775    -0.75200
O608        O  0.19957876  0.29200634  0.16546917    -0.78700
O609        O  0.24827687  0.28346756  0.24158015    -0.79400
C610        C  0.17304204  0.32437803  0.16171343     0.95900
O611        O  0.28266372  0.30343235  0.18561083    -0.77300
O612        O  0.15206653  0.40253638  0.21190533    -0.82500
C613        C  0.23205437  0.41189959  0.23483778     0.98500
C614        C  0.12785090  0.38147735  0.22399686     1.04400
O615        O  0.21177360  0.37855227  0.24313604    -0.78200
C616        C  0.28809867  0.34507167  0.17915368     1.02700
Fe617      Fe  0.26315671  0.73660009  0.31457455     1.65800
Fe618      Fe  0.29122551  0.62320424  0.31133122     1.73200
Fe619      Fe  0.29879923  0.69379896  0.27149483     1.54400
O620        O  0.24077978  0.71993276  0.26494978    -0.81900
O621        O  0.34216489  0.60454919  0.29382110    -0.80200
O622        O  0.23180004  0.76778346  0.29063316    -0.84400
O623        O  0.31437934  0.77548825  0.30838412    -0.79300
O624        O  0.27896745  0.62544282  0.26389905    -0.81000
O625        O  0.33102463  0.65165983  0.33157680    -0.83800
C626        C  0.32649740  0.78848500  0.29144542     0.97000
C627        C  0.22378229  0.75564389  0.27289445     1.04400
O628        O  0.28430698  0.68460541  0.29900578    -1.12800
O629        O  0.23943232  0.63124450  0.32981337    -0.75200
O630        O  0.21044304  0.69928891  0.32093031    -0.78700
O631        O  0.32051240  0.76319165  0.27608909    -0.79400
C632        C  0.20765386  0.65785954  0.32797911     0.95900
O633        O  0.29333774  0.71402191  0.34049691    -0.77300
O634        O  0.25272598  0.59293176  0.29118817    -0.82500
C635        C  0.36512390  0.62558691  0.28125472     0.98500
C636        C  0.26053598  0.59156344  0.27286231     1.04400
O637        O  0.35783858  0.66789381  0.27594048    -0.78200
C638        C  0.32400922  0.68599976  0.34307770     1.02700
Fe639      Fe  0.48603250  0.73790329  0.44220768     1.65800
Fe640      Fe  0.45540615  0.62561810  0.44455921     1.73200
Fe641      Fe  0.44380254  0.69528061  0.48442900     1.54400
O642        O  0.50078606  0.72177112  0.49284605    -0.81900
O643        O  0.40294567  0.60732670  0.46067226    -0.80200
O644        O  0.51538160  0.76706862  0.46681686    -0.84400
O645        O  0.43533016  0.77877047  0.44728086    -0.79300
O646        O  0.46280546  0.62682024  0.49256508    -0.81000
O647        O  0.41832049  0.65520990  0.42335124    -0.83800
C648        C  0.41874066  0.78993049  0.46359890     0.97000
C649        C  0.52015424  0.75604750  0.48494818     1.04400
O650        O  0.46182438  0.68644729  0.45723574    -1.12800
O651        O  0.50859016  0.63256096  0.42710231    -0.75200
O652        O  0.53865277  0.69919672  0.43669869    -0.78700
O653        O  0.42213691  0.76418970  0.47904795    -0.79400
C654        C  0.54069600  0.65833542  0.42912668     0.95900
O655        O  0.45819131  0.71696502  0.41557288    -0.77300
O656        O  0.49127887  0.59461228  0.46569467    -0.82500
C657        C  0.37868568  0.62750727  0.47282545     0.98500
C658        C  0.48189249  0.59308778  0.48387775     1.04400
O659        O  0.38520255  0.66947098  0.47860528    -0.78200
C660        C  0.42787846  0.68922685  0.41203254     1.02700
Fe661      Fe  0.73136005  0.26775965  0.69145009     1.65800
Fe662      Fe  0.70572842  0.38204491  0.69444458     1.73200
Fe663      Fe  0.69349343  0.31156707  0.73409783     1.54400
O664        O  0.67010683  0.24346928  0.72919350    -0.81900
O665        O  0.74318864  0.41038313  0.71544991    -0.80200
O666        O  0.67937932  0.22945810  0.69709262    -0.84400
O667        O  0.76103843  0.23717298  0.71565719    -0.79300
O668        O  0.63552511  0.33862127  0.72854707    -0.81000
O669        O  0.75863385  0.37320464  0.67700575    -0.83800
C670        C  0.76824360  0.24873618  0.73350843     0.97000
C671        C  0.66348581  0.21916012  0.71367207     1.04400
O672        O  0.71000899  0.32023575  0.70670925    -1.12800
O673        O  0.66804128  0.35594372  0.67283490    -0.75200
O674        O  0.70276351  0.29019139  0.66519130    -0.78700
O675        O  0.75041234  0.28373866  0.74160331    -0.79400
C676        C  0.67543503  0.32161096  0.66135465     0.95900
O677        O  0.78531478  0.30396036  0.68570444    -0.77300
O678        O  0.65355695  0.40160998  0.71101490    -0.82500
C679        C  0.73342977  0.41258997  0.73351462     0.98500
C680        C  0.62945188  0.38110203  0.72327796     1.04400
O681        O  0.71361923  0.37945408  0.74223917    -0.78200
C682        C  0.78960630  0.34562443  0.67906111     1.02700
Fe683      Fe  0.51631644  0.26583367  0.56200071     1.65800
Fe684      Fe  0.53915228  0.38076586  0.55841007     1.73200
Fe685      Fe  0.54989191  0.31061774  0.51882467     1.54400
O686        O  0.57469222  0.24277733  0.52340979    -0.81900
O687        O  0.49941050  0.40856312  0.53807924    -0.80200
O688        O  0.56891779  0.22962457  0.55576015    -0.84400
O689        O  0.48573857  0.23389126  0.53814416    -0.79300
O690        O  0.60771337  0.33868724  0.52351260    -0.81000
O691        O  0.48797038  0.37011096  0.57688437    -0.83800
C692        C  0.47696074  0.24584941  0.52043565     0.97000
C693        C  0.58327191  0.21906167  0.53894472     1.04400
O694        O  0.53512070  0.31893809  0.54634215    -1.12800
O695        O  0.57942312  0.35515748  0.57907898    -0.75200
O696        O  0.54606871  0.28946970  0.58782383    -0.78700
O697        O  0.49294552  0.28203345  0.51232281    -0.79400
C698        C  0.57392915  0.32077398  0.59084723     0.95900
O699        O  0.46222988  0.30036358  0.56844128    -0.77300
O700        O  0.58965975  0.40166800  0.54092826    -0.82500
C701        C  0.50818882  0.41091950  0.51988920     0.98500
C702        C  0.61364445  0.38121766  0.52863035     1.04400
O703        O  0.52798666  0.37805422  0.51103116    -0.78200
C704        C  0.45752224  0.34161395  0.57531037     1.02700
C705        C  0.65178075  0.31952386  0.64272247    -0.05700
C706        C  0.63262911  0.27742061  0.63659621    -0.33100
C707        C  0.60667249  0.27693362  0.61987056     0.36100
C708        C  0.60050635  0.31879501  0.60878709    -0.06100
C709        C  0.62100901  0.36028175  0.61473642    -0.33000
C710        C  0.64602264  0.36094523  0.63154369     0.36000
H711        H  0.63681984  0.24525250  0.64510220     0.16400
O712        O  0.58836340  0.23527894  0.61429292    -0.60500
H713        H  0.61726882  0.39289374  0.60648600     0.16400
O714        O  0.66576560  0.40214248  0.63665760    -0.60600
H715        H  0.64441288  0.42136733  0.64350925     0.43400
H716        H  0.56289534  0.23273953  0.62248141     0.43400
C717        C  0.49941770  0.45583357  0.50957444    -0.05700
C718        C  0.46748499  0.48543860  0.51648661    -0.33100
C719        C  0.46261210  0.53128106  0.50900296     0.36100
C720        C  0.49015156  0.54837308  0.49443929    -0.06100
C721        C  0.52222500  0.51888184  0.48769846    -0.33000
C722        C  0.52686919  0.47300379  0.49500548     0.36000
H723        H  0.44629444  0.47306076  0.52781971     0.16400
O724        O  0.42956226  0.55799998  0.51527414    -0.60500
H725        H  0.54376108  0.53133952  0.47656863     0.16400
O726        O  0.55980389  0.44631226  0.48857491    -0.60600
H727        H  0.55023814  0.43167052  0.47608297     0.43400
H728        H  0.43928474  0.57369085  0.52750952     0.43400
C729        C  0.35204355  0.69237556  0.36020722    -0.05700
C730        C  0.33629800  0.70923637  0.37820086    -0.33100
C731        C  0.36143805  0.71008552  0.39510410     0.36100
C732        C  0.40318297  0.69546509  0.39398591    -0.06100
C733        C  0.41969398  0.68130462  0.37583383    -0.33000
C734        C  0.39446859  0.67951910  0.35901441     0.36000
H735        H  0.30397382  0.71962929  0.37939717     0.16400
O736        O  0.34488044  0.72470675  0.41273346    -0.60500
H737        H  0.45175899  0.66972908  0.37488217     0.16400
O738        O  0.41141207  0.66410720  0.34158478    -0.60600
H739        H  0.41919991  0.69327145  0.33430922     0.43400
H740        H  0.33271778  0.69588106  0.41877723     0.43400
C741        C  0.25148635  0.54697817  0.26234049    -0.05700
C742        C  0.22385813  0.51413577  0.27080675    -0.33100
C743        C  0.21847911  0.46920683  0.26260870     0.36100
C744        C  0.24128907  0.45603323  0.24569677    -0.06100
C745        C  0.26914333  0.48879468  0.23735326    -0.33000
C746        C  0.27441966  0.53369657  0.24550215     0.36000
H747        H  0.20629480  0.52322897  0.28391880     0.16400
O748        O  0.19027105  0.43895721  0.27107993    -0.60500
H749        H  0.28684521  0.47978938  0.22427472     0.16400
O750        O  0.30272694  0.56385296  0.23704722    -0.60600
H751        H  0.32980648  0.55550956  0.24314395     0.43400
H752        H  0.16305651  0.44761729  0.26519536     0.43400
C753        C  0.14830941  0.32227060  0.14331057    -0.05700
C754        C  0.12952471  0.27983534  0.13731705    -0.33100
C755        C  0.10342435  0.27857599  0.12061854     0.36100
C756        C  0.09622756  0.32016087  0.10950464    -0.06100
C757        C  0.11581787  0.36226381  0.11549252    -0.33000
C758        C  0.14141068  0.36353775  0.13214304     0.36000
H759        H  0.13429436  0.24782127  0.14585661     0.16400
O760        O  0.08498111  0.23672287  0.11541550    -0.60500
H761        H  0.11110047  0.39481160  0.10731198     0.16400
O762        O  0.15967277  0.40551433  0.13736790    -0.60600
H763        H  0.18688275  0.40575916  0.13047776     0.43400
H764        H  0.10785157  0.21663686  0.11034344     0.43400
C765        C  0.75150599  0.55043040  0.75813111    -0.05700
C766        C  0.71804433  0.52225821  0.76443202    -0.33100
C767        C  0.71299015  0.47622066  0.75734982     0.36100
C768        C  0.74177005  0.45751227  0.74374770    -0.06100
C769        C  0.77518328  0.48569700  0.73744903    -0.33000
C770        C  0.78021879  0.53170597  0.74450584     0.36000
H771        H  0.69585636  0.53587997  0.77504027     0.16400
O772        O  0.67859272  0.45090724  0.76299163    -0.60500
H773        H  0.79745559  0.47205437  0.72689012     0.16400
O774        O  0.81468298  0.55691287  0.73888017    -0.60600
H775        H  0.80705535  0.57191110  0.72612944     0.43400
H776        H  0.68666183  0.43494254  0.77547464     0.43400
C777        C  0.99133315  0.54502549  0.99306970    -0.05700
C778        C  0.01964820  0.51265376  0.98493650    -0.33100
C779        C  0.02280868  0.46666325  0.99232305     0.36100
C780        C  0.99763835  0.45233608  0.00832387    -0.06100
C781        C  0.96869830  0.48438215  0.01616660    -0.33000
C782        C  0.96539711  0.53027455  0.00871264     0.36000
H783        H  0.03941699  0.52294264  0.97270893     0.16400
O784        O  0.05214730  0.43700058  0.98441923    -0.60500
H785        H  0.94890415  0.47411194  0.02839710     0.16400
O786        O  0.93537694  0.55957484  0.01626926    -0.60600
H787        H  0.94826575  0.57440543  0.02802326     0.43400
H788        H  0.03784616  0.42063159  0.97340734     0.43400
C789        C  0.89846612  0.68473357  0.89324407    -0.05700
C790        C  0.88234293  0.64216913  0.88582200    -0.33100
C791        C  0.85837067  0.64134120  0.86864983     0.36100
C792        C  0.84939943  0.68367102  0.85848113    -0.06100
C793        C  0.86543634  0.72644919  0.86576784    -0.33000
C794        C  0.89020305  0.72715105  0.88290445     0.36000
H795        H  0.88846182  0.60900731  0.89334300     0.16400
O796        O  0.84341934  0.59877578  0.86206385    -0.60500
H797        H  0.85923533  0.75927788  0.85801455     0.16400
O798        O  0.90581785  0.76940925  0.88944230    -0.60600
H799        H  0.88372892  0.78291902  0.89793804     0.43400
H800        H  0.81558371  0.59547366  0.86820542     0.43400
C801        C  0.88692597  0.82708865  0.96642870    -0.05700
C802        C  0.89251698  0.85887798  0.98211502    -0.33100
C803        C  0.87353189  0.90360543  0.98169820     0.36100
C804        C  0.84850748  0.91668884  0.96544548    -0.06100
C805        C  0.84145143  0.88356886  0.95037085    -0.33000
C806        C  0.86012484  0.83923390  0.95083230     0.36000
H807        H  0.91320861  0.84997616  0.99420017     0.16400
O808        O  0.88061611  0.93449338  0.99690849    -0.60500
H809        H  0.82129283  0.89197388  0.93802488     0.16400
O810        O  0.85265190  0.80827726  0.93567247    -0.60600
H811        H  0.83001748  0.78743549  0.94049903     0.43400
H812        H  0.90573637  0.95252408  0.99297846     0.43400
C813        C  0.89618392  0.15350508  0.98531091    -0.05700
C814        C  0.90503462  0.19980846  0.97899490    -0.33100
C815        C  0.92952255  0.23010467  0.99042161     0.36100
C816        C  0.94622391  0.21437404  0.00858950    -0.06100
C817        C  0.93811385  0.16780388  0.01473056    -0.33000
C818        C  0.91361297  0.13747294  0.00330997     0.36000
H819        H  0.89182044  0.21333020  0.96538320     0.16400
O820        O  0.93626084  0.27530514  0.98375569    -0.60500
H821        H  0.95095300  0.15456334  0.02847144     0.16400
O822        O  0.90529836  0.09306873  0.01048789    -0.60600
H823        H  0.92833154  0.07292927  0.00560046     0.43400
H824        H  0.91302120  0.29426952  0.98921999     0.43400
C825        C  0.89058801  0.92614542  0.78579482    -0.05700
C826        C  0.89511717  0.89524644  0.76969047    -0.33100
C827        C  0.87574368  0.85061000  0.76979564     0.36100
C828        C  0.85145121  0.83660380  0.78617566    -0.06100
C829        C  0.84555202  0.86887471  0.80169283    -0.33000
C830        C  0.86448523  0.91304175  0.80153731     0.36000
H831        H  0.91512554  0.90479902  0.75744223     0.16400
O832        O  0.88155598  0.82081418  0.75409296    -0.60500
H833        H  0.82602681  0.85999027  0.81420179     0.16400
O834        O  0.85781466  0.94293449  0.81714868    -0.60600
H835        H  0.83447591  0.96360674  0.81297641     0.43400
H836        H  0.90761353  0.80343855  0.75707382     0.43400
C837        C  0.89594839  0.06979536  0.85850634    -0.05700
C838        C  0.87898778  0.11220238  0.86571550    -0.33100
C839        C  0.85463246  0.11284728  0.88277740     0.36100
C840        C  0.84592114  0.07046610  0.89291606    -0.06100
C841        C  0.86184394  0.02772969  0.88554560    -0.33000
C842        C  0.88694851  0.02718387  0.86853589     0.36000
H843        H  0.88506366  0.14542665  0.85824473     0.16400
O844        O  0.83828329  0.15504338  0.88906582    -0.60500
H845        H  0.85550678  0.99482201  0.89320651     0.16400
O846        O  0.90237226  0.98492958  0.86185883    -0.60600
H847        H  0.87888848  0.96968726  0.85485252     0.43400
H848        H  0.86116517  0.17090562  0.89628722     0.43400
C849        C  0.79707869  0.21882500  0.74530829    -0.05700
C850        C  0.80829720  0.17403247  0.73811291    -0.33100
C851        C  0.83457838  0.14415730  0.74884910     0.36100
C852        C  0.85008512  0.15839123  0.76743201    -0.06100
C853        C  0.83842343  0.20293504  0.77477996    -0.33000
C854        C  0.81236414  0.23303913  0.76391895     0.36000
H855        H  0.79683518  0.16189989  0.72395986     0.16400
O856        O  0.84578338  0.10170271  0.74064940    -0.60500
H857        H  0.85034958  0.21511409  0.78883803     0.16400
O858        O  0.80254316  0.27644277  0.77161193    -0.60600
H859        H  0.82438350  0.29815271  0.76662828     0.43400
H860        H  0.87029209  0.10885783  0.73226163     0.43400
C861        C  0.29605586  0.53893685  0.50632547    -0.05700
C862        C  0.29256564  0.58835856  0.50767158    -0.33100
C863        C  0.31670324  0.61811469  0.49567862     0.36100
C864        C  0.34564634  0.59854209  0.48231492    -0.06100
C865        C  0.34757229  0.54896336  0.48044530    -0.33000
C866        C  0.32323511  0.51937880  0.49228163     0.36000
H867        H  0.27081987  0.60399587  0.51799346     0.16400
O868        O  0.31247227  0.66614739  0.49757314    -0.60500
H869        H  0.36957490  0.53265916  0.47044294     0.16400
O870        O  0.32739012  0.47129862  0.49046319    -0.60600
H871        H  0.34855629  0.46213657  0.50042447     0.43400
H872        H  0.29145273  0.67534449  0.48754683     0.43400
C873        C  0.33302732  0.39476060  0.57959785    -0.05700
C874        C  0.34005050  0.34573035  0.57928415    -0.33100
C875        C  0.38042557  0.32738025  0.57935453     0.36100
C876        C  0.41492789  0.35821526  0.58020502    -0.06100
C877        C  0.40765725  0.40689496  0.58271270    -0.33000
C878        C  0.36721300  0.42529103  0.58217574     0.36000
H879        H  0.31430866  0.32140483  0.57752494     0.16400
O880        O  0.38566069  0.27935737  0.57777861    -0.60500
H881        H  0.43345298  0.43137896  0.58370645     0.16400
O882        O  0.36158262  0.47324278  0.58368347    -0.60600
H883        H  0.36909417  0.48624924  0.57053787     0.43400
H884        H  0.38097677  0.27203296  0.56362422     0.43400
C885        C  0.99960122  0.30127680  0.74330329    -0.05700
C886        C  0.02485432  0.28845987  0.75936917    -0.33100
C887        C  0.02278070  0.24312477  0.76753416     0.36100
C888        C  0.99484030  0.20952287  0.75973924    -0.06100
C889        C  0.96904986  0.22262458  0.74389595    -0.33000
C890        C  0.97103112  0.26804629  0.73577804     0.36000
H891        H  0.04759438  0.31302366  0.76517715     0.16400
O892        O  0.04826658  0.23216425  0.78314572    -0.60500
H893        H  0.94633130  0.19802008  0.73809709     0.16400
O894        O  0.94515741  0.27933124  0.72035345    -0.60600
H895        H  0.92037899  0.29402022  0.72653999     0.43400
H896        H  0.07363320  0.21841791  0.77712801     0.43400
C897        C  0.15146708  0.43587925  0.60894295    -0.05700
C898        C  0.13465266  0.39347744  0.61623263    -0.33100
C899        C  0.10965469  0.39288569  0.63304140     0.36100
C900        C  0.10056690  0.43524899  0.64303655    -0.06100
C901        C  0.11722488  0.47792441  0.63587305    -0.33000
C902        C  0.14287688  0.47842092  0.61903124     0.36000
H903        H  0.14092915  0.36025403  0.60886897     0.16400
O904        O  0.09386774  0.35049725  0.63947819    -0.60500
H905        H  0.11093112  0.51076121  0.64352571     0.16400
O906        O  0.15916049  0.52051280  0.61256335    -0.60600
H907        H  0.13629621  0.53619703  0.60523111     0.43400
H908        H  0.06740208  0.34642514  0.63216482     0.43400
C909        C  0.89743121  0.59734147  0.76727217    -0.05700
C910        C  0.91706384  0.61632495  0.75045212    -0.33100
C911        C  0.94251179  0.58835844  0.73843919     0.36100
C912        C  0.94881289  0.54017160  0.74302812    -0.06100
C913        C  0.93008192  0.52146683  0.76008297    -0.33000
C914        C  0.90477062  0.54941231  0.77213685     0.36000
H915        H  0.91186346  0.65281268  0.74619961     0.16400
O916        O  0.96105769  0.60871863  0.72227572    -0.60500
H917        H  0.93479814  0.48472622  0.76408748     0.16400
O918        O  0.88646641  0.52885753  0.78831138    -0.60600
H919        H  0.90611943  0.53433740  0.79935347     0.43400
H920        H  0.98850766  0.61989503  0.72702732     0.43400
C921        C  0.83221965  0.36303062  0.67452598    -0.05700
C922        C  0.86538802  0.33070192  0.67353777    -0.33100
C923        C  0.90672458  0.34621099  0.67293721     0.36100
C924        C  0.91582803  0.39510237  0.67340752    -0.06100
C925        C  0.88257982  0.42739120  0.67307769    -0.33000
C926        C  0.84125753  0.41188263  0.67374612     0.36000
H927        H  0.85944673  0.29301302  0.67413011     0.16400
O928        O  0.93783093  0.31303861  0.67353462    -0.60500
H929        H  0.88853989  0.46508569  0.67337620     0.16400
O930        O  0.81018990  0.44503820  0.67480547    -0.60600
H931        H  0.80784274  0.45301280  0.68902286     0.43400
H932        H  0.94313942  0.30473402  0.65954232     0.43400
C933        C  0.34643016  0.83564329  0.28978336    -0.05700
C934        C  0.36414872  0.85086793  0.27184940    -0.33100
C935        C  0.38290830  0.89558311  0.27030241     0.36100
C936        C  0.38428434  0.92555842  0.28689180    -0.06100
C937        C  0.36459869  0.91132226  0.30436114    -0.33000
C938        C  0.34615756  0.86712215  0.30600410     0.36000
H939        H  0.36412616  0.82784409  0.25909138     0.16400
O940        O  0.40178844  0.90832911  0.25293194    -0.60500
H941        H  0.36446140  0.93418731  0.31719071     0.16400
O942        O  0.32756722  0.85558351  0.32361630    -0.60600
H943        H  0.35042349  0.84404380  0.33221433     0.43400
H944        H  0.37926163  0.92188188  0.24465915     0.43400
C945        C  0.29296127  0.21769873  0.24557474    -0.05700
C946        C  0.29457287  0.16892461  0.24186719    -0.33100
C947        C  0.31997793  0.13906099  0.25315395     0.36100
C948        C  0.34483056  0.15791719  0.26846532    -0.06100
C949        C  0.34183034  0.20653845  0.27259998    -0.33000
C950        C  0.31609721  0.23620588  0.26142509     0.36000
H951        H  0.27595618  0.15373253  0.23015040     0.16400
O952        O  0.32050833  0.09166118  0.24887067    -0.60500
H953        H  0.36067650  0.22224133  0.28410131     0.16400
O954        O  0.31562914  0.28371357  0.26544962    -0.60600
H955        H  0.29611547  0.28734590  0.27668496     0.43400
H956        H  0.33912093  0.08851065  0.23726694     0.43400
C957        C  0.35749893  0.92534717  0.46396963    -0.05700
C958        C  0.35541899  0.89635687  0.48083484    -0.33100
C959        C  0.37451989  0.85171731  0.48105322     0.36100
C960        C  0.39649104  0.83584014  0.46427504    -0.06100
C961        C  0.39907412  0.86569246  0.44765619    -0.33000
C962        C  0.38011861  0.90981737  0.44742885     0.36000
H963        H  0.33768538  0.90754344  0.49360249     0.16400
O964        O  0.37119447  0.82404364  0.49764038    -0.60500
H965        H  0.41611962  0.85510579  0.43459549     0.16400
O966        O  0.38352884  0.93725256  0.43074936    -0.60600
H967        H  0.40729323  0.95869617  0.43330494     0.43400
H968        H  0.34527808  0.80559399  0.49578944     0.43400
C969        C  0.24954864  0.20474531  0.49370605    -0.05700
C970        C  0.27561414  0.21749638  0.50946014    -0.33100
C971        C  0.27410348  0.26294617  0.51753616     0.36100
C972        C  0.24628809  0.29691810  0.50978907    -0.06100
C973        C  0.21986459  0.28393278  0.49420262    -0.33000
C974        C  0.22129604  0.23847384  0.48617052     0.36000
H975        H  0.29842063  0.19271681  0.51513573     0.16400
O976        O  0.30079773  0.27411640  0.53263313    -0.60500
H977        H  0.19706191  0.30868678  0.48850342     0.16400
O978        O  0.19432480  0.22712140  0.47120679    -0.60600
H979        H  0.20607223  0.24205742  0.45916477     0.43400
H980        H  0.28836716  0.25985696  0.54466386     0.43400
C981        C  0.34852006  0.07212293  0.39301433    -0.05700
C982        C  0.36449312  0.11458009  0.38534058    -0.33100
C983        C  0.38923441  0.11493464  0.36838959     0.36100
C984        C  0.39901215  0.07224460  0.35870589    -0.06100
C985        C  0.38402130  0.02951577  0.36657989    -0.33000
C986        C  0.35851719  0.02926431  0.38345615     0.36000
H987        H  0.35741336  0.14797370  0.39240092     0.16400
O988        O  0.40380852  0.15743383  0.36144161    -0.60500
H989        H  0.39123390  0.99635645  0.35936499     0.16400
O990        O  0.34465875  0.98687815  0.39080475    -0.60600
H991        H  0.31961672  0.97916895  0.38290244     0.43400
H992        H  0.43203264  0.16072553  0.36717085     0.43400
C993        C  0.39564910  0.15958239  0.48446835    -0.05700
C994        C  0.41558429  0.14030145  0.50117298    -0.33100
C995        C  0.44134979  0.16795742  0.51318541     0.36100
C996        C  0.44838746  0.21596164  0.50851885    -0.06100
C997        C  0.42959991  0.23487264  0.49148911    -0.33000
C998        C  0.40322287  0.20747968  0.47966893     0.36000
H999        H  0.41031180  0.10380652  0.50537975     0.16400
O1000       O  0.46032775  0.14716973  0.52914836    -0.60500
H1001       H  0.43480161  0.27147194  0.48741487     0.16400
O1002       O  0.38497234  0.22816790  0.46349695    -0.60600
H1003       H  0.36061616  0.24562637  0.46874865     0.43400
H1004       H  0.43946762  0.14842857  0.53992212     0.43400
C1005       C  0.50017657  0.29913966  0.24288530    -0.05700
C1006       C  0.47122709  0.26788692  0.23443401    -0.33100
C1007       C  0.46700079  0.22159104  0.24142449     0.36100
C1008       C  0.49187935  0.20566965  0.25724549    -0.06100
C1009       C  0.52093278  0.23689534  0.26562271    -0.33000
C1010       C  0.52508939  0.28317220  0.25867080     0.36000
H1011       H  0.45198045  0.27921357  0.22215716     0.16400
O1012       O  0.43712393  0.19311834  0.23325153    -0.60500
H1013       H  0.54032325  0.22561087  0.27785310     0.16400
O1014       O  0.55509638  0.31155519  0.26679414    -0.60600
H1015       H  0.54175241  0.32624184  0.27847248     0.43400
H1016       H  0.45088493  0.17765191  0.22186146     0.43400
C1017       C  0.39776746  0.59815169  0.27067967    -0.05700
C1018       C  0.41131106  0.61412232  0.25207599    -0.33100
C1019       C  0.43567179  0.58552692  0.23980288     0.36100
C1020       C  0.44794863  0.53992174  0.24609206    -0.06100
C1021       C  0.43580813  0.52466737  0.26504936    -0.33000
C1022       C  0.41078475  0.55302917  0.27719745     0.36000
H1023       H  0.40156169  0.64835951  0.24653967     0.16400
O1024       O  0.44768098  0.60306070  0.22177856    -0.60500
H1025       H  0.44532614  0.49026148  0.27049098     0.16400
O1026       O  0.39949401  0.53628854  0.29546300    -0.60600
H1027       H  0.37638814  0.51387653  0.29296572     0.43400
H1028       H  0.42397965  0.59667127  0.21280379     0.43400
C1029       C  0.33103362  0.36059070  0.17388760    -0.05700
C1030       C  0.33917457  0.40891248  0.17076920    -0.33100
C1031       C  0.38002175  0.42605969  0.17027517     0.36100
C1032       C  0.41381671  0.39488416  0.17307295    -0.06100
C1033       C  0.40589993  0.34612366  0.17404992    -0.33000
C1034       C  0.36509056  0.32886748  0.17441631     0.36000
H1035       H  0.31383994  0.43408370  0.16986442     0.16400
O1036       O  0.38636333  0.47376592  0.16817383    -0.60500
H1037       H  0.43130032  0.32133891  0.17596970     0.16400
O1038       O  0.35912312  0.28114214  0.17666185    -0.60600
H1039       H  0.35695998  0.26862529  0.16303408     0.43400
H1040       H  0.39156180  0.47864812  0.15387209     0.43400
C1041       C  0.74111074  0.29449961  0.01091440    -0.05700
C1042       C  0.76358547  0.25896307  0.02091692    -0.33100
C1043       C  0.76801567  0.21363856  0.01293494     0.36100
C1044       C  0.74995126  0.20289447  0.99450589    -0.06100
C1045       C  0.72732087  0.23839162  0.98459877    -0.33000
C1046       C  0.72311140  0.28369728  0.99249679     0.36000
H1047       H  0.77757331  0.26606612  0.03516256     0.16400
O1048       O  0.79127348  0.18083877  0.02301995    -0.60500
H1049       H  0.71321409  0.23141843  0.97038034     0.16400
O1050       O  0.70009766  0.31651142  0.98229521    -0.60600
H1051       H  0.72005708  0.33204886  0.97319413     0.43400
H1052       H  0.77141356  0.16483561  0.03202643     0.43400
C1053       C  0.59553727  0.44240740  0.14409168    -0.05700
C1054       C  0.57640506  0.43510780  0.12578195    -0.33100
C1055       C  0.60008790  0.43371788  0.10844958     0.36100
C1056       C  0.64348523  0.44075454  0.10923636    -0.06100
C1057       C  0.66231475  0.45027272  0.12750061    -0.33000
C1058       C  0.63873506  0.45015783  0.14492111     0.36000
H1059       H  0.54322363  0.42875344  0.12501027     0.16400
O1060       O  0.58059388  0.42474913  0.09083589    -0.60500
H1061       H  0.69559921  0.45575962  0.12837132     0.16400
O1062       O  0.65806588  0.45785404  0.16268424    -0.60600
H1063       H  0.66869014  0.42645798  0.16687839     0.43400
H1064       H  0.57374218  0.45630520  0.08529541     0.43400
C1065       C  0.79727132  0.53348661  0.00861830    -0.05700
C1066       C  0.79984189  0.58215969  0.01247525    -0.33100
C1067       C  0.82470741  0.61192394  0.00089736     0.36100
C1068       C  0.84834395  0.59323349  0.98512271    -0.06100
C1069       C  0.84535250  0.54445625  0.98117040    -0.33000
C1070       C  0.82024048  0.51477649  0.99271694     0.36000
H1071       H  0.78203294  0.59751708  0.02443699     0.16400
O1072       O  0.82651763  0.65899695  0.00563444    -0.60500
H1073       H  0.86352153  0.52875315  0.96942070     0.16400
O1074       O  0.81910532  0.46736460  0.98852548    -0.60600
H1075       H  0.84046657  0.45283266  0.99719979     0.43400
H1076       H  0.80414019  0.67415033  0.99777096     0.43400
C1077       C  0.82681667  0.39012409  0.08041163    -0.05700
C1078       C  0.85987492  0.42248385  0.08156381    -0.33100
C1079       C  0.90125138  0.40723729  0.08117402     0.36100
C1080       C  0.91055044  0.35848976  0.07986463    -0.06100
C1081       C  0.87744924  0.32595702  0.08043276    -0.33000
C1082       C  0.83598361  0.34132386  0.08075865     0.36000
H1083       H  0.85376962  0.46017688  0.08156629     0.16400
O1084       O  0.93213568  0.44067255  0.08085062    -0.60500
H1085       H  0.88356020  0.28834420  0.07954554     0.16400
O1086       O  0.80491126  0.30827909  0.07958843    -0.60600
H1087       H  0.79804905  0.30032750  0.09348374     0.43400
H1088       H  0.93456792  0.45051652  0.06681850     0.43400
C1089       C  0.14364386  0.40794393  0.01894518    -0.05700
C1090       C  0.14520312  0.45709335  0.02209629    -0.33100
C1091       C  0.17013477  0.48639031  0.01033137     0.36100
C1092       C  0.19368413  0.46699089  0.99475939    -0.06100
C1093       C  0.19304892  0.41785935  0.99189866    -0.33000
C1094       C  0.16890280  0.38838280  0.00394586     0.36000
H1095       H  0.12601869  0.47335655  0.03334102     0.16400
O1096       O  0.16969828  0.53424152  0.01361856    -0.60500
H1097       H  0.21193570  0.40200767  0.98043276     0.16400
O1098       O  0.16943915  0.34064277  0.00044767    -0.60600
H1099       H  0.19070830  0.32773073  0.00960438     0.43400
H1100       H  0.18903537  0.53931139  0.02482650     0.43400
C1101       C  0.07919679  0.64176839  0.92265769    -0.05700
C1102       C  0.11238732  0.67358289  0.92035099    -0.33100
C1103       C  0.15361833  0.65751839  0.91975066     0.36100
C1104       C  0.16249679  0.60880477  0.92196011    -0.06100
C1105       C  0.12908458  0.57680077  0.92217973    -0.33000
C1106       C  0.08785999  0.59277389  0.92243515     0.36000
H1107       H  0.10655980  0.71131655  0.91991931     0.16400
O1108       O  0.18491297  0.69012011  0.91790345    -0.60500
H1109       H  0.13479785  0.53913450  0.92334680     0.16400
O1110       O  0.05651235  0.56003871  0.92372336    -0.60600
H1111       H  0.05467509  0.55170211  0.93793013     0.43400
H1112       H  0.19102714  0.70037237  0.93150202     0.43400
C1113       C  0.39896128  0.56807222  0.86003125    -0.05700
C1114       C  0.38579692  0.61072261  0.86853563    -0.33100
C1115       C  0.36033432  0.61118429  0.88520558     0.36100
C1116       C  0.34706942  0.56835800  0.89391427    -0.06100
C1117       C  0.35993859  0.52541522  0.88542066    -0.33000
C1118       C  0.38610249  0.52505235  0.86872208     0.36000
H1119       H  0.39525836  0.64425057  0.86218162     0.16400
O1120       O  0.34816906  0.65404242  0.89271391    -0.60500
H1121       H  0.35020496  0.49213129  0.89188866     0.16400
O1122       O  0.39738918  0.48262116  0.86056059    -0.60600
H1123       H  0.42221211  0.47228682  0.86811633     0.43400
H1124       H  0.32119972  0.66111315  0.88624486     0.43400
C1125       C  0.54756803  0.46972471  0.75745356    -0.05700
C1126       C  0.55088721  0.42126283  0.76171275    -0.33100
C1127       C  0.57477115  0.39121108  0.74986915     0.36100
C1128       C  0.59683482  0.40946325  0.73345813    -0.06100
C1129       C  0.59248361  0.45781411  0.72888590    -0.33000
C1130       C  0.56825086  0.48776200  0.74066511     0.36000
H1131       H  0.53453926  0.40630053  0.77424865     0.16400
O1132       O  0.57753276  0.34440539  0.75506780    -0.60500
H1133       H  0.60917142  0.47307701  0.71652227     0.16400
O1134       O  0.56584024  0.53481952  0.73582200    -0.60600
H1135       H  0.58858375  0.55016916  0.74333147     0.43400
H1136       H  0.55444312  0.32867710  0.74794743     0.43400
C1137       C  0.66551801  0.64444293  0.82972474    -0.05700
C1138       C  0.65750691  0.59559332  0.83006710    -0.33100
C1139       C  0.61674391  0.57827352  0.83021737     0.36100
C1140       C  0.58268771  0.60991157  0.83001443    -0.06100
C1141       C  0.59076647  0.65862959  0.83163772    -0.33000
C1142       C  0.63160878  0.67594197  0.83152715     0.36000
H1143       H  0.68283170  0.57046939  0.82891865     0.16400
O1144       O  0.61077234  0.53031688  0.82926038    -0.60500
H1145       H  0.56536172  0.68380139  0.83173483     0.16400
O1146       O  0.63772554  0.72391422  0.83200138    -0.60600
H1147       H  0.64395526  0.73124023  0.84600834     0.43400
H1148       H  0.60885284  0.51969078  0.84319882     0.43400
C1149       C  0.64571216  0.08535812  0.53825653    -0.05700
C1150       C  0.64838579  0.11533558  0.55472899    -0.33100
C1151       C  0.63034433  0.15993189  0.55460171     0.36100
C1152       C  0.60881245  0.17591762  0.53776113     0.03500
C1153       C  0.60759215  0.14722735  0.52085292    -0.33000
C1154       C  0.62607380  0.10221457  0.52096498     0.36000
H1155       H  0.66461213  0.10438377  0.56800150     0.16400
O1156       O  0.63429679  0.18789828  0.57105009    -0.60500
H1157       H  0.59087985  0.15886009  0.50781882     0.16400
O1158       O  0.62334400  0.07457714  0.50441138    -0.60600
H1159       H  0.64706112  0.08439281  0.49598811     0.43400
H1160       H  0.61462727  0.17458114  0.58088780     0.43400
C1161       C  0.59828094  0.84698216  0.52042699    -0.05700
C1162       C  0.59117268  0.79979157  0.52624331    -0.33100
C1163       C  0.56580281  0.76969882  0.51501722     0.36100
C1164       C  0.54746136  0.78620585  0.49736999    -0.06100
C1165       C  0.55352591  0.83363638  0.49188804    -0.33000
C1166       C  0.57838717  0.86385410  0.50316312     0.36000
H1167       H  0.60627782  0.78556452  0.53927100     0.16400
O1168       O  0.56088270  0.72362722  0.52094930    -0.60500
H1169       H  0.53886655  0.84763218  0.47869592     0.16400
O1170       O  0.58365861  0.90956148  0.49679692    -0.60600
H1171       H  0.60613572  0.90807029  0.48678565     0.43400
H1172       H  0.53860082  0.72444427  0.53106804     0.43400
C1173       C  0.63810839  0.17586139  0.71473129    -0.05700
C1174       C  0.63663237  0.14884824  0.73218546    -0.33100
C1175       C  0.61787216  0.10403762  0.73234787     0.36100
C1176       C  0.60019690  0.08588988  0.71485953    -0.06100
C1177       C  0.60038322  0.11415362  0.69773271    -0.33000
C1178       C  0.61867852  0.15854272  0.69759324     0.36000
H1179       H  0.65140670  0.16164703  0.74551845     0.16400
O1180       O  0.61733693  0.07842717  0.74957435    -0.60500
H1181       H  0.58615943  0.10204287  0.68415416     0.16400
O1182       O  0.61798724  0.18434298  0.68039022    -0.60600
H1183       H  0.59309657  0.20489877  0.68142662     0.43400
H1184       H  0.64355972  0.05996620  0.74951103     0.43400
C1185       C  0.50276112  0.79934049  0.74357717    -0.05700
C1186       C  0.52828023  0.78544869  0.75938125    -0.33100
C1187       C  0.52475115  0.74031939  0.76769067     0.36100
C1188       C  0.49539399  0.70795679  0.76012199    -0.06100
C1189       C  0.46985301  0.72192715  0.74435229    -0.33000
C1190       C  0.47331978  0.76704706  0.73608102     0.36000
H1191       H  0.55199976  0.80909376  0.76497300     0.16400
O1192       O  0.55089578  0.72783073  0.78286499    -0.60500
H1193       H  0.44612485  0.69832718  0.73873986     0.16400
O1194       O  0.44699178  0.77962987  0.72099577    -0.60600
H1195       H  0.45843370  0.76420910  0.70902617     0.43400
H1196       H  0.53915141  0.74308721  0.79480734     0.43400
C1197       C  0.59642472  0.94238750  0.64360128    -0.05700
C1198       C  0.63862383  0.95445121  0.64502439    -0.33100
C1199       C  0.66412642  0.95484211  0.62820613     0.36100
C1200       C  0.64775869  0.94136694  0.60975167    -0.06100
C1201       C  0.60524252  0.93011311  0.60836681    -0.33000
C1202       C  0.57953168  0.93121836  0.62506564     0.36000
H1203       H  0.65197451  0.96283556  0.65928753     0.16400
O1204       O  0.70552765  0.96527787  0.63021822    -0.60500
H1205       H  0.59199080  0.91992409  0.59429265     0.16400
O1206       O  0.53855935  0.91848383  0.62333843    -0.60600
H1207       H  0.52327664  0.94860929  0.62139858     0.43400
H1208       H  0.70708754  0.00028022  0.62967516     0.43400
C1209       C  0.64772906  0.84893885  0.73458996    -0.05700
C1210       C  0.65456019  0.80171057  0.72898480    -0.33100
C1211       C  0.67885833  0.77133655  0.74055312     0.36100
C1212       C  0.69749715  0.78793901  0.75807760    -0.06100
C1213       C  0.69093178  0.83513920  0.76365895    -0.33000
C1214       C  0.66655598  0.86553172  0.75213542     0.36000
H1215       H  0.63998864  0.78761554  0.71583398     0.16400
O1216       O  0.68357655  0.72526473  0.73467444    -0.60500
H1217       H  0.70514934  0.84891728  0.77696022     0.16400
O1218       O  0.66000555  0.91075046  0.75872704    -0.60600
H1219       H  0.68347893  0.92949355  0.75334928     0.43400
H1220       H  0.66075201  0.70773120  0.74127734     0.43400
C1221       C  0.74415596  0.79909387  0.50980075    -0.05700
C1222       C  0.71634294  0.78431183  0.49503986    -0.33100
C1223       C  0.71997374  0.73949505  0.48643246     0.36100
C1224       C  0.75163807  0.70835307  0.49266299    -0.06100
C1225       C  0.77953552  0.72324508  0.50732496    -0.33000
C1226       C  0.77594895  0.76801023  0.51591988     0.36000
H1227       H  0.69085991  0.80700417  0.49053393     0.16400
O1228       O  0.69163577  0.72591230  0.47240739    -0.60500
H1229       H  0.80504816  0.70058505  0.51182736     0.16400
O1230       O  0.80440818  0.78158740  0.52989030    -0.60600
H1231       H  0.79942171  0.76056503  0.54139575     0.43400
H1232       H  0.69991614  0.74283879  0.46017983     0.43400
C1233       C  0.64642735  0.40937075  0.51846652    -0.05700
C1234       C  0.65237246  0.45708766  0.52358782    -0.33100
C1235       C  0.67784161  0.48674024  0.51222038     0.36100
C1236       C  0.69809555  0.46902078  0.49528191    -0.06100
C1237       C  0.69287438  0.42118405  0.49040185    -0.33000
C1238       C  0.66777876  0.39143632  0.50182687     0.36000
H1239       H  0.63625626  0.47205469  0.53615366     0.16400
O1240       O  0.68206576  0.53316297  0.51768207    -0.60500
H1241       H  0.70862030  0.40641363  0.47768531     0.16400
O1242       O  0.66317321  0.34532486  0.49600221    -0.60600
H1243       H  0.68620686  0.32793989  0.50251999     0.43400
H1244       H  0.65966356  0.55026101  0.51056056     0.43400
C1245       C  0.66530644  0.60725438  0.42236905    -0.05700
C1246       C  0.63219201  0.57520702  0.42473342    -0.33100
C1247       C  0.59098158  0.59088153  0.42535168     0.36100
C1248       C  0.58203134  0.63948403  0.42350992    -0.06100
C1249       C  0.61456928  0.67080551  0.41895942    -0.33000
C1250       C  0.65589170  0.65503675  0.41820365     0.36000
H1251       H  0.63822615  0.53806465  0.42747811     0.16400
O1252       O  0.56012156  0.55873309  0.42926057    -0.60500
H1253       H  0.60822263  0.70815055  0.41696037     0.16400
O1254       O  0.68678811  0.68710260  0.41426654    -0.60600
H1255       H  0.69181463  0.70369109  0.42691878     0.43400
H1256       H  0.56031332  0.55466681  0.44380613     0.43400
C1257       C  0.89978511  0.56314150  0.36026816    -0.05700
C1258       C  0.91845974  0.56679398  0.37888300    -0.33100
C1259       C  0.89401912  0.56718854  0.39600081     0.36100
C1260       C  0.85048250  0.56250130  0.39459926    -0.06100
C1261       C  0.83213162  0.55596060  0.37601812    -0.33000
C1262       C  0.85648386  0.55677051  0.35888193     0.36000
H1263       H  0.95181337  0.57132188  0.38009392     0.16400
O1264       O  0.91290924  0.57168037  0.41406897    -0.60500
H1265       H  0.79871461  0.55225412  0.37473370     0.16400
O1266       O  0.83762958  0.55240858  0.34080321    -0.60600
H1267       H  0.84094687  0.51864808  0.33718350     0.43400
H1268       H  0.91773923  0.60607504  0.41572259     0.43400
C1269       C  0.04344507  0.46953018  0.25723914    -0.05700
C1270       C  0.05351337  0.42381335  0.26384985    -0.33100
C1271       C  0.07896881  0.39394332  0.25271865     0.36100
C1272       C  0.09506100  0.40920301  0.23432910    -0.06100
C1273       C  0.08423085  0.45455923  0.22746801    -0.33000
C1274       C  0.05872244  0.48453498  0.23868066     0.36000
H1275       H  0.04182841  0.41095206  0.27787855     0.16400
O1276       O  0.08896550  0.35045803  0.26041182    -0.60500
H1277       H  0.09645418  0.46744989  0.21355120     0.16400
O1278       O  0.04951657  0.52862631  0.23140741    -0.60600
H1279       H  0.07215423  0.54938763  0.23623677     0.43400
H1280       H  0.11341612  0.35610257  0.26902218     0.43400
C1281       C  0.08182855  0.60902668  0.33140597    -0.05700
C1282       C  0.11478232  0.57623164  0.33079330    -0.33100
C1283       C  0.15626064  0.59108710  0.33163064     0.36100
C1284       C  0.16560441  0.63968856  0.33292876    -0.06100
C1285       C  0.13275826  0.67190012  0.33560602    -0.33000
C1286       C  0.09124423  0.65702462  0.33489057     0.36000
H1287       H  0.10857336  0.53900662  0.32847443     0.16400
O1288       O  0.18714047  0.55817436  0.32912890    -0.60500
H1289       H  0.13914963  0.70935037  0.33704104     0.16400
O1290       O  0.06033595  0.69024997  0.33645077    -0.60600
H1291       H  0.05760494  0.70420640  0.32305744     0.43400
H1292       H  0.19327695  0.54617866  0.34259621     0.43400
C1293       C  0.10049744  0.08398942  0.21439243    -0.05700
C1294       C  0.09920983  0.11308140  0.19751449    -0.33100
C1295       C  0.11670715  0.15796855  0.19752675     0.36100
C1296       C  0.13669894  0.17504475  0.21457901    -0.06100
C1297       C  0.13715695  0.14686331  0.23172437    -0.33000
C1298       C  0.11934888  0.10152416  0.23171404     0.36000
H1299       H  0.08425151  0.10130318  0.18406209     0.16400
O1300       O  0.11459091  0.18457046  0.18056299    -0.60500
H1301       H  0.15270851  0.15922910  0.24492904     0.16400
O1302       O  0.12099396  0.07472953  0.24860633    -0.60600
H1303       H  0.14668835  0.05555435  0.24736083     0.43400
H1304       H  0.08928269  0.20429015  0.18203925     0.43400
C1305       C  0.99247436  0.70854991  0.26107374    -0.05700
C1306       C  0.96394128  0.72475836  0.24690524    -0.33100
C1307       C  0.96705180  0.77034187  0.23910812     0.36100
C1308       C  0.99940347  0.80047765  0.24528710    -0.06100
C1309       C  0.02779179  0.78441746  0.25955351    -0.33000
C1310       C  0.02464754  0.73882104  0.26737774     0.36000
H1311       H  0.93820679  0.70262713  0.24232556     0.16400
O1312       O  0.93842979  0.78496605  0.22535726    -0.60500
H1313       H  0.05356060  0.80654824  0.26409089     0.16400
O1314       O  0.05322680  0.72421956  0.28115248    -0.60600
H1315       H  0.07560955  0.70866171  0.27346585     0.43400
H1316       H  0.91623521  0.80084524  0.23305339     0.43400
C1317       C  0.19567218  0.78563100  0.26070435    -0.05700
C1318       C  0.19328213  0.83447728  0.26431200    -0.33100
C1319       C  0.16909005  0.86426330  0.25231030     0.36100
C1320       C  0.14592450  0.84536076  0.23640391    -0.06100
C1321       C  0.14902239  0.79651606  0.23266624    -0.33000
C1322       C  0.17341791  0.76689853  0.24458957     0.36000
H1323       H  0.21071834  0.84988806  0.27638013     0.16400
O1324       O  0.16741630  0.91151648  0.25675514    -0.60500
H1325       H  0.13139845  0.78064580  0.22077659     0.16400
O1326       O  0.17453768  0.71941902  0.24054483    -0.60600
H1327       H  0.15161489  0.70546440  0.24843261     0.43400
H1328       H  0.19029197  0.92615111  0.24905746     0.43400
C1329       C  0.14503899  0.08425105  0.03756643    -0.05700
C1330       C  0.14657301  0.11319487  0.05440635    -0.33100
C1331       C  0.12724370  0.15707528  0.05476247     0.36100
C1332       C  0.10572783  0.17354864  0.03804613    -0.06100
C1333       C  0.10582734  0.14612058  0.02073423    -0.33000
C1334       C  0.12550655  0.10174159  0.02036641     0.36000
H1335       H  0.16265665  0.10184615  0.06765988     0.16400
O1336       O  0.12982315  0.18379325  0.07160214    -0.60500
H1337       H  0.08935743  0.15826513  0.00771089     0.16400
O1338       O  0.12410434  0.07533775  0.00342637    -0.60600
H1339       H  0.14791027  0.08652689  0.99536286     0.43400
H1340       H  0.10990561  0.16908727  0.08095888     0.43400
C1341       C  0.24167730  0.79662501  0.00974252    -0.05700
C1342       C  0.21642746  0.78370409  0.99376492    -0.33100
C1343       C  0.21898538  0.73847714  0.98554967     0.36100
C1344       C  0.24714295  0.70497451  0.99334822    -0.06100
C1345       C  0.27210797  0.71774516  0.00947360    -0.33000
C1346       C  0.26952886  0.76292163  0.01769782     0.36000
H1347       H  0.19369617  0.80828989  0.98787519     0.16400
O1348       O  0.19314309  0.72706773  0.97017169    -0.60500
H1349       H  0.29477201  0.69314420  0.01540876     0.16400
O1350       O  0.29511188  0.77402347  0.03323131    -0.60600
H1351       H  0.28201711  0.75930596  0.04500525     0.43400
H1352       H  0.20195275  0.74767731  0.95905395     0.43400
C1353       C  0.14917256  0.93365373  0.10995187    -0.05700
C1354       C  0.13690094  0.89035385  0.11828678    -0.33100
C1355       C  0.11213934  0.88873006  0.13517139     0.36100
C1356       C  0.09867433  0.93097438  0.14413298    -0.06100
C1357       C  0.11077330  0.97451151  0.13583189    -0.33000
C1358       C  0.13632714  0.97606732  0.11899215     0.36000
H1359       H  0.14651819  0.85729351  0.11162999     0.16400
O1360       O  0.10076537  0.84544244  0.14260471    -0.60500
H1361       H  0.10082894  0.00736417  0.14254595     0.16400
O1362       O  0.14693915  0.01903140  0.11102371    -0.60600
H1363       H  0.17176766  0.02938352  0.11853925     0.43400
H1364       H  0.07439240  0.83745965  0.13580154     0.43400
C1365       C  0.04517451  0.78653461  0.99597571    -0.05700
C1366       C  0.04880736  0.83483264  0.99136103    -0.33100
C1367       C  0.07346587  0.86506328  0.00281953     0.36100
C1368       C  0.09560862  0.84719694  0.01928915    -0.06100
C1369       C  0.09044280  0.79925560  0.02436023    -0.33000
C1370       C  0.06539957  0.76921903  0.01302541     0.36000
H1371       H  0.03241047  0.84943235  0.97875856     0.16400
O1372       O  0.07608301  0.91182760  0.99751190    -0.60500
H1373       H  0.10704110  0.78429080  0.03682156     0.16400
O1374       O  0.06264678  0.72242792  0.01825505    -0.60600
H1375       H  0.04155741  0.72127143  0.02893421     0.43400
H1376       H  0.09673620  0.91292761  0.98664433     0.43400
C1377       C  0.13831761  0.57826421  0.53683272    -0.05700
C1378       C  0.14123374  0.60872564  0.52045238    -0.33100
C1379       C  0.12180130  0.65327932  0.52065251     0.36100
C1380       C  0.09890332  0.66768779  0.53739602    -0.06100
C1381       C  0.09475922  0.63597548  0.55332114    -0.33000
C1382       C  0.11389046  0.59184640  0.55309058     0.36000
H1383       H  0.16010602  0.59890268  0.50785752     0.16400
O1384       O  0.12618078  0.68259946  0.50462402    -0.60500
H1385       H  0.07653243  0.64527669  0.56619570     0.16400
O1386       O  0.10908185  0.56250843  0.56910309    -0.60600
H1387       H  0.08687374  0.54000304  0.56529527     0.43400
H1388       H  0.15172554  0.70115611  0.50726418     0.43400
C1389       C  0.15096683  0.90331035  0.51795018    -0.05700
C1390       C  0.16853635  0.88589909  0.50036587    -0.33100
C1391       C  0.19369745  0.91462546  0.48841518     0.36100
C1392       C  0.20126077  0.96212477  0.49374161    -0.06100
C1393       C  0.18558715  0.97855313  0.51184108    -0.33000
C1394       C  0.16112754  0.94967839  0.52393151     0.36000
H1395       H  0.16159587  0.85037220  0.49541625     0.16400
O1396       O  0.21037174  0.89583285  0.47151881    -0.60500
H1397       H  0.19185475  0.01435974  0.51663865     0.16400
O1398       O  0.14618922  0.96799686  0.54127070    -0.60600
H1399       H  0.16606546  0.95733523  0.55156299     0.43400
H1400       H  0.23810776  0.88366538  0.47546285     0.43400
C1401       C  0.94620337  0.71920697  0.50860271    -0.05700
C1402       C  0.94327063  0.67064681  0.51274048    -0.33100
C1403       C  0.91908171  0.64068509  0.50096712     0.36100
C1404       C  0.89682085  0.65909190  0.48462891    -0.06100
C1405       C  0.90046273  0.70764101  0.48033602    -0.33000
C1406       C  0.92492210  0.73745153  0.49204365     0.36000
H1407       H  0.96026678  0.65555571  0.52506234     0.16400
O1408       O  0.91736428  0.59352809  0.50572345    -0.60500
H1409       H  0.88329009  0.72312538  0.46816486     0.16400
O1410       O  0.92627483  0.78481194  0.48765324    -0.60600
H1411       H  0.94671529  0.78777683  0.47675572     0.43400
H1412       H  0.89661997  0.59116999  0.51652172     0.43400
C1413       C  0.91705457  0.86619461  0.58037996    -0.05700
C1414       C  0.88422712  0.83389441  0.58276422    -0.33100
C1415       C  0.84277641  0.84905830  0.58294238     0.36100
C1416       C  0.83322701  0.89747770  0.58060130    -0.06100
C1417       C  0.86622305  0.93017948  0.58025611    -0.33000
C1418       C  0.90773570  0.91503065  0.58027350     0.36000
H1419       H  0.89048552  0.79626824  0.58338024     0.16400
O1420       O  0.81194756  0.81576299  0.58430234    -0.60500
H1421       H  0.85995570  0.96768419  0.57881250     0.16400
O1422       O  0.93856101  0.94821804  0.57835215    -0.60600
H1423       H  0.94481341  0.95851682  0.59202439     0.43400
H1424       H  0.80665502  0.80562009  0.57053807     0.43400
C1425       C  0.14743334  0.67057091  0.71570617    -0.05700
C1426       C  0.15352321  0.63907349  0.69990957    -0.33100
C1427       C  0.13495457  0.59473003  0.69974055     0.36100
C1428       C  0.10929840  0.58069972  0.71548779    -0.06100
C1429       C  0.10491642  0.61068335  0.73190757    -0.33000
C1430       C  0.12377998  0.65550944  0.73209456     0.36000
H1431       H  0.17270940  0.64882116  0.68739187     0.16400
O1432       O  0.14137925  0.56572067  0.68380994    -0.60500
H1433       H  0.08526429  0.60032084  0.74417233     0.16400
O1434       O  0.11796812  0.68450862  0.74805651    -0.60600
H1435       H  0.09227305  0.70257763  0.74508331     0.43400
H1436       H  0.16524673  0.54537567  0.68756779     0.43400
C1437       C  0.09839881  0.82075561  0.60933681    -0.05700
C1438       C  0.10664305  0.86361842  0.61890892    -0.33100
C1439       C  0.13097992  0.86505951  0.63595514     0.36100
C1440       C  0.14825879  0.82302395  0.64379066    -0.06100
C1441       C  0.14022348  0.77997684  0.63412670    -0.33000
C1442       C  0.11527337  0.77861820  0.61708177     0.36000
H1443       H  0.09397702  0.89640907  0.61314752     0.16400
O1444       O  0.13787787  0.90805417  0.64470535    -0.60500
H1445       H  0.15298705  0.74726420  0.63988436     0.16400
O1446       O  0.10826940  0.73616094  0.60793183    -0.60600
H1447       H  0.13027169  0.73360754  0.59772726     0.43400
H1448       H  0.16407255  0.91992251  0.63877981     0.43400
C1449       C  0.10179807  0.91107044  0.73491908    -0.05700
C1450       C  0.10045856  0.96025940  0.73161442    -0.33100
C1451       C  0.07587947  0.98983229  0.74334856     0.36100
C1452       C  0.05168125  0.97057728  0.75873462    -0.06100
C1453       C  0.05253262  0.92152138  0.76194568    -0.33000
C1454       C  0.07695049  0.89184070  0.75017381     0.36000
H1455       H  0.11957345  0.97633589  0.72026710     0.16400
O1456       O  0.07642270  0.03763955  0.73985525    -0.60500
H1457       H  0.03361803  0.90586619  0.77347884     0.16400
O1458       O  0.07707837  0.84427665  0.75418440    -0.60600
H1459       H  0.05456533  0.83091680  0.74589897     0.43400
H1460       H  0.09848861  0.05023378  0.74861749     0.43400
C1461       C  0.29926505  0.71920012  0.74492659    -0.05700
C1462       C  0.30632839  0.67203649  0.73947173    -0.33100
C1463       C  0.33072214  0.64197545  0.75115313     0.36100
C1464       C  0.34942646  0.65890698  0.76868996    -0.06100
C1465       C  0.34186638  0.70598883  0.77427942    -0.33000
C1466       C  0.31718079  0.73594802  0.76264313     0.36000
H1467       H  0.29251567  0.65800316  0.72612239     0.16400
O1468       O  0.33741133  0.59666898  0.74470684    -0.60500
H1469       H  0.35606073  0.72023288  0.78749549     0.16400
O1470       O  0.31128512  0.78172008  0.76869234    -0.60600
H1471       H  0.33386858  0.80007690  0.76230285     0.43400
H1472       H  0.31396710  0.57794522  0.75013045     0.43400
C1473       C  0.41448564  0.89590684  0.67377418    -0.05700
C1474       C  0.40690813  0.84728387  0.67151890    -0.33100
C1475       C  0.36619625  0.82963674  0.67132479     0.36100
C1476       C  0.33211933  0.86089975  0.67296799    -0.06100
C1477       C  0.33971262  0.90973955  0.67322876    -0.33000
C1478       C  0.38025071  0.92731666  0.67391934     0.36000
H1479       H  0.43253103  0.82240846  0.67121191     0.16400
O1480       O  0.36016505  0.78169818  0.67010577    -0.60500
H1481       H  0.31417184  0.93458395  0.67440116     0.16400
O1482       O  0.38584469  0.97527634  0.67548385    -0.60600
H1483       H  0.38018972  0.98283658  0.68954010     0.43400
H1484       H  0.36623573  0.76923625  0.68351390     0.43400
C1485       C  0.39214559  0.33368735  0.96521856    -0.05700
C1486       C  0.40372345  0.37009630  0.95215758    -0.33100
C1487       C  0.38483299  0.41436102  0.95299367     0.36100
C1488       C  0.35343628  0.42307395  0.96692636    -0.06100
C1489       C  0.34288122  0.38769507  0.98063764    -0.33000
C1490       C  0.36200193  0.34305392  0.97983954     0.36000
H1491       H  0.42763560  0.36430548  0.94115119     0.16400
O1492       O  0.39662572  0.44872571  0.93978787    -0.60500
H1493       H  0.31838676  0.39389043  0.99131238     0.16400
O1494       O  0.35001899  0.30858182  0.99293609    -0.60600
H1495       H  0.32724188  0.29129748  0.98622493     0.43400
H1496       H  0.41875365  0.46684729  0.94660592     0.43400
C1497       C  0.54464090  0.28661156  0.99486002    -0.05700
C1498       C  0.55472200  0.33235616  0.98828887    -0.33100
C1499       C  0.57966902  0.36240279  0.99963666     0.36100
C1500       C  0.59519554  0.34720994  0.01815337    -0.06100
C1501       C  0.58444179  0.30176656  0.02489682    -0.33000
C1502       C  0.55960670  0.27164385  0.01348956     0.36000
H1503       H  0.54320686  0.34516549  0.97421650     0.16400
O1504       O  0.58940696  0.40614064  0.99214298    -0.60500
H1505       H  0.59624677  0.28884505  0.03889552     0.16400
O1506       O  0.55064109  0.22743286  0.02069170    -0.60600
H1507       H  0.57350857  0.20688642  0.01591635     0.43400
H1508       H  0.61410082  0.40093470  0.98364172     0.43400
C1509       C  0.58047318  0.14249673  0.92296584    -0.05700
C1510       C  0.61346903  0.17500740  0.92223154    -0.33100
C1511       C  0.65489088  0.15970161  0.92219388     0.36100
C1512       C  0.66417428  0.11087418  0.92285731    -0.06100
C1513       C  0.63117493  0.07842037  0.92170733    -0.33000
C1514       C  0.58975038  0.09371940  0.92178372     0.36000
H1515       H  0.60730644  0.21265365  0.92278314     0.16400
O1516       O  0.68587003  0.19299132  0.92264935    -0.60500
H1517       H  0.63732484  0.04074289  0.92186904     0.16400
O1518       O  0.55876919  0.06039512  0.92183343    -0.60600
H1519       H  0.55582882  0.05047655  0.93582796     0.43400
H1520       H  0.68860091  0.20196853  0.93673866     0.43400
C1521       C  0.29518650  0.03606928  0.00734011    -0.05700
C1522       C  0.31998005  0.01530305  0.99271772    -0.33100
C1523       C  0.34584452  0.04290597  0.98071565     0.36100
C1524       C  0.34674330  0.09271265  0.98290438    -0.06100
C1525       C  0.32034117  0.11352935  0.99699481    -0.33000
C1526       C  0.29474167  0.08574691  0.00908370     0.36000
H1527       H  0.32015670  0.97724022  0.99089790     0.16400
O1528       O  0.37091465  0.02042245  0.96730054    -0.60500
H1529       H  0.32024333  0.15150217  0.99906586     0.16400
O1530       O  0.26925258  0.10764948  0.02249211    -0.60600
H1531       H  0.24197605  0.11069137  0.01576018     0.43400
H1532       H  0.39578028  0.01033254  0.97490289     0.43400
C1533       C  0.35810225  0.33026675  0.78651964    -0.05700
C1534       C  0.35767776  0.35899753  0.76950774    -0.33100
C1535       C  0.37642169  0.40398277  0.76964057     0.36100
C1536       C  0.39597483  0.42057806  0.78697286    -0.06100
C1537       C  0.39755694  0.39063541  0.80357498    -0.33000
C1538       C  0.37933377  0.34617018  0.80341497     0.36000
H1539       H  0.34141647  0.34741728  0.75637088     0.16400
O1540       O  0.37493268  0.43136274  0.75290641    -0.60500
H1541       H  0.41320838  0.40146235  0.81698883     0.16400
O1542       O  0.38187406  0.31882104  0.82014989    -0.60600
H1543       H  0.40698057  0.29895109  0.81831171     0.43400
H1544       H  0.34873172  0.44968025  0.75398767     0.43400
C1545       C  0.24610576  0.95680898  0.74325079    -0.05700
C1546       C  0.21437114  0.97559656  0.75511045    -0.33100
C1547       C  0.21701029  0.02168152  0.76235903     0.36100
C1548       C  0.25177378  0.04980450  0.75774426    -0.06100
C1549       C  0.28348781  0.03109933  0.74582074    -0.33000
C1550       C  0.28077723  0.98501247  0.73851018     0.36000
H1551       H  0.18668867  0.95506099  0.75824095     0.16400
O1552       O  0.18492298  0.03946617  0.77344985    -0.60500
H1553       H  0.31117391  0.05165468  0.74271468     0.16400
O1554       O  0.31271316  0.96729605  0.72729707    -0.60600
H1555       H  0.30860143  0.98084626  0.71391146     0.43400
H1556       H  0.18850678  0.02548682  0.78679208     0.43400
C1557       C  0.34874178  0.18320610  0.85798915    -0.05700
C1558       C  0.36240082  0.14031717  0.86623531    -0.33100
C1559       C  0.38731239  0.13952262  0.88309671     0.36100
C1560       C  0.39946838  0.18220014  0.89216821    -0.06100
C1561       C  0.38700020  0.22529105  0.88363456    -0.33000
C1562       C  0.36143578  0.22602021  0.86678950     0.36000
H1563       H  0.35333905  0.10693055  0.85970502     0.16400
O1564       O  0.39962291  0.09658123  0.89057363    -0.60500
H1565       H  0.39621924  0.25844468  0.89030618     0.16400
O1566       O  0.35015529  0.26867827  0.85873235    -0.60600
H1567       H  0.32547052  0.27894478  0.86637563     0.43400
H1568       H  0.42710869  0.09030821  0.88448138     0.43400
C1569       C  0.19774594  0.28665344  0.75754349    -0.05700
C1570       C  0.19551798  0.33532196  0.76135331    -0.33100
C1571       C  0.17059328  0.36507195  0.74983721     0.36100
C1572       C  0.14658852  0.34625087  0.73423789    -0.06100
C1573       C  0.14926411  0.29744005  0.73033896    -0.33000
C1574       C  0.17437747  0.26777869  0.74184197     0.36000
H1575       H  0.21371415  0.35065818  0.77318362     0.16400
O1576       O  0.16911013  0.41223578  0.75444760    -0.60500
H1577       H  0.13079286  0.28168743  0.71871177     0.16400
O1578       O  0.17509164  0.22024494  0.73785471    -0.60600
H1579       H  0.15238161  0.20650119  0.74594887     0.43400
H1580       H  0.19170640  0.42699566  0.74661124     0.43400
C1581       C  0.16300730  0.14737180  0.82967184    -0.05700
C1582       C  0.15491397  0.09912299  0.83307005    -0.33100
C1583       C  0.11412703  0.08186865  0.83352177     0.36100
C1584       C  0.08033909  0.11294465  0.83058375    -0.06100
C1585       C  0.08825677  0.16171915  0.82931582    -0.33000
C1586       C  0.12899383  0.17902149  0.82883494     0.36000
H1587       H  0.18025800  0.07399410  0.83412459     0.16400
O1588       O  0.10790295  0.03414469  0.83561452    -0.60500
H1589       H  0.06290334  0.18647487  0.82720468     0.16400
O1590       O  0.13491562  0.22659789  0.82604504    -0.60600
H1591       H  0.13795316  0.23986326  0.83950654     0.43400
H1592       H  0.10267644  0.02923429  0.84990833     0.43400
C1593       C  0.39774240  0.09536877  0.76935062    -0.05700
C1594       C  0.42019339  0.11501707  0.75352579    -0.33100
C1595       C  0.44595775  0.08699786  0.74174755     0.36100
C1596       C  0.45013945  0.03823838  0.74572599    -0.06100
C1597       C  0.42958326  0.01900672  0.76217894    -0.33000
C1598       C  0.40365250  0.04699022  0.77394212     0.36000
H1599       H  0.41670800  0.15204087  0.74971439     0.16400
O1600       O  0.46766050  0.10801837  0.72665252    -0.60500
H1601       H  0.43295027  0.98182332  0.76575031     0.16400
O1602       O  0.38313071  0.02603697  0.78941294    -0.60600
H1603       H  0.40106353  0.03150250  0.80110052     0.43400
H1604       H  0.44781437  0.10988517  0.71546576     0.43400
C1605       C  0.60059367  0.58580850  0.21520908    -0.05700
C1606       C  0.59933997  0.61510616  0.19838340    -0.33100
C1607       C  0.61803109  0.65933685  0.19822951     0.36100
C1608       C  0.63936291  0.67562222  0.21503079    -0.06100
C1609       C  0.63983172  0.64740449  0.23217616    -0.33000
C1610       C  0.62069070  0.60266680  0.23235440     0.36000
H1611       H  0.58347909  0.60402485  0.18506367     0.16400
O1612       O  0.61565456  0.68615569  0.18133110    -0.60500
H1613       H  0.65631317  0.65925879  0.24520836     0.16400
O1614       O  0.62214142  0.57587090  0.24924983    -0.60600
H1615       H  0.64829973  0.55744003  0.24826713     0.43400
H1616       H  0.59172355  0.70770443  0.18340523     0.43400
C1617       C  0.59537396  0.90850990  0.23201847    -0.05700
C1618       C  0.57831717  0.89086374  0.24969715    -0.33100
C1619       C  0.55288625  0.91893010  0.26165783     0.36100
C1620       C  0.54326291  0.96574833  0.25599548    -0.06100
C1621       C  0.55878311  0.98275605  0.23787845    -0.33000
C1622       C  0.58448441  0.95471128  0.22595931     0.36000
H1623       H  0.58597136  0.85557062  0.25479730     0.16400
O1624       O  0.53716842  0.89972995  0.27871848    -0.60500
H1625       H  0.55140915  0.01827772  0.23296376     0.16400
O1626       O  0.59958701  0.97346453  0.20869318    -0.60600
H1627       H  0.57888937  0.96479355  0.19846832     0.43400
H1628       H  0.55922764  0.90426370  0.28877243     0.43400
C1629       C  0.79561618  0.72008284  0.24614354    -0.05700
C1630       C  0.81643011  0.73994130  0.26238470    -0.33100
C1631       C  0.84160190  0.71213108  0.27478190     0.36100
C1632       C  0.84647235  0.66316424  0.27114231    -0.06100
C1633       C  0.82396101  0.64309718  0.25542188    -0.33000
C1634       C  0.79877865  0.67087331  0.24309877     0.36000
H1635       H  0.81380775  0.77747552  0.26531055     0.16400
O1636       O  0.86242520  0.73377558  0.28993766    -0.60500
H1637       H  0.82671329  0.60572019  0.25221463     0.16400
O1638       O  0.77730288  0.64929428  0.22812140    -0.60600
H1639       H  0.74951147  0.64211219  0.23372731     0.43400
H1640       H  0.84379253  0.73083556  0.30154562     0.43400
C1641       C  0.83034206  0.86265095  0.17198241    -0.05700
C1642       C  0.86301289  0.83001853  0.16974860    -0.33100
C1643       C  0.90461479  0.84474761  0.16991719     0.36100
C1644       C  0.91433918  0.89306214  0.17243216    -0.06100
C1645       C  0.88149531  0.92603006  0.17261341    -0.33000
C1646       C  0.83993553  0.91129609  0.17232095     0.36000
H1647       H  0.85644037  0.79248885  0.16900875     0.16400
O1648       O  0.93533073  0.81120132  0.16869839    -0.60500
H1649       H  0.88785992  0.96343790  0.17422023     0.16400
O1650       O  0.80925424  0.94462051  0.17436087    -0.60600
H1651       H  0.80317401  0.95557812  0.16073812     0.43400
H1652       H  0.93829712  0.79836625  0.18227427     0.43400
C1653       C  0.60430257  0.67228163  0.03629992    -0.05700
C1654       C  0.59870418  0.64044848  0.02060415    -0.33100
C1655       C  0.61831335  0.59601287  0.02084800     0.36100
C1656       C  0.64393583  0.58329221  0.03693172    -0.06100
C1657       C  0.65080648  0.61643341  0.05202983    -0.33000
C1658       C  0.63151996  0.66040030  0.05175711     0.36000
H1659       H  0.57770870  0.64916009  0.00861453     0.16400
O1660       O  0.61132911  0.56510582  0.00563477    -0.60500
H1661       H  0.67131281  0.60833573  0.06428096     0.16400
O1662       O  0.63893585  0.69130240  0.06694931    -0.60600
H1663       H  0.66119682  0.71257441  0.06205608     0.43400
H1664       H  0.58738669  0.54555793  0.00994610     0.43400
C1665       C  0.50143223  0.95571339  0.00932727    -0.05700
C1666       C  0.47350956  0.98805468  0.01782675    -0.33100
C1667       C  0.46904958  0.03378272  0.01023808     0.36100
C1668       C  0.49288216  0.04820742  0.99381278    -0.06100
C1669       C  0.52108749  0.01597937  0.98542116    -0.33000
C1670       C  0.52561677  0.97030144  0.99305133     0.36000
H1671       H  0.45502969  0.97795575  0.03051976     0.16400
O1672       O  0.44071021  0.06362233  0.01881815    -0.60500
H1673       H  0.53960831  0.02602522  0.97272088     0.16400
O1674       O  0.55444903  0.94068947  0.98470613    -0.60600
H1675       H  0.58127027  0.94917864  0.99099006     0.43400
H1676       H  0.41370758  0.05586342  0.01254950     0.43400
C1677       C  0.64694372  0.81198374  0.14299731    -0.05700
C1678       C  0.66565763  0.80732600  0.12438392    -0.33100
C1679       C  0.64142168  0.80765014  0.10712766     0.36100
C1680       C  0.59774346  0.81058440  0.10838012    -0.06100
C1681       C  0.57892428  0.81286513  0.12702047    -0.33000
C1682       C  0.60320522  0.81459958  0.14422227     0.36000
H1683       H  0.69920850  0.80553532  0.12316883     0.16400
O1684       O  0.66063255  0.80472230  0.08908340    -0.60500
H1685       H  0.54540063  0.81540813  0.12820327     0.16400
O1686       O  0.58391571  0.81842009  0.16222132    -0.60600
H1687       H  0.57725696  0.85249709  0.16366049     0.43400
H1688       H  0.66844176  0.83767021  0.08566950     0.43400
C1689       C  0.64690653  0.90294497  0.01756375    -0.05700
C1690       C  0.65925689  0.88885878  0.99854427    -0.33100
C1691       C  0.68398220  0.91805439  0.98668146     0.36100
C1692       C  0.69707779  0.96263448  0.99370057    -0.06100
C1693       C  0.68591192  0.97593779  0.01300766    -0.33000
C1694       C  0.66127276  0.94660925  0.02488020     0.36000
H1695       H  0.64834243  0.85576600  0.99241541     0.16400
O1696       O  0.69441884  0.90274276  0.96812359    -0.60500
H1697       H  0.69611645  0.00945574  0.01899896     0.16400
O1698       O  0.65070339  0.96163320  0.04345536    -0.60600
H1699       H  0.67189518  0.94753965  0.05234258     0.43400
H1700       H  0.72030262  0.88412715  0.96991135     0.43400
C1701       C  0.39538382  0.65507199  0.98382153    -0.05700
C1702       C  0.41479680  0.63707859  0.00086791    -0.33100
C1703       C  0.44028571  0.66568660  0.01258161     0.36100
C1704       C  0.44710548  0.71346858  0.00736747    -0.06100
C1705       C  0.42975256  0.73061749  0.98969313    -0.33000
C1706       C  0.40434909  0.70197423  0.97795008     0.36000
H1707       H  0.40900858  0.60109777  0.00566339     0.16400
O1708       O  0.45896955  0.64612870  0.02889183    -0.60500
H1709       H  0.43531948  0.76675411  0.98504756     0.16400
O1710       O  0.38738835  0.72095551  0.96111427    -0.60600
H1711       H  0.40629323  0.71119481  0.95029347     0.43400
H1712       H  0.43757779  0.64711513  0.03942952     0.43400
C1713       C  0.41440006  0.86061547  0.07958253    -0.05700
C1714       C  0.38120176  0.82852978  0.08135342    -0.33100
C1715       C  0.33986505  0.84416307  0.08160635     0.36100
C1716       C  0.33079753  0.89285707  0.07974696    -0.06100
C1717       C  0.36406939  0.92514713  0.07988548    -0.33000
C1718       C  0.40545047  0.90950997  0.07980590     0.36000
H1719       H  0.38712826  0.79080821  0.08151781     0.16400
O1720       O  0.30874037  0.81106947  0.08200706    -0.60500
H1721       H  0.35813831  0.96279896  0.07888098     0.16400
O1722       O  0.43666210  0.94243381  0.07868105    -0.60600
H1723       H  0.43869628  0.95086545  0.06448937     0.43400
H1724       H  0.30229896  0.80642644  0.09620514     0.43400
C1725       C  0.85370266  0.33306063  0.28948953    -0.05700
C1726       C  0.85855486  0.35843217  0.27173044    -0.33100
C1727       C  0.87653917  0.40373271  0.27162758     0.36100
C1728       C  0.89011297  0.42426154  0.28949311    -0.06100
C1729       C  0.88517548  0.39855760  0.30712313    -0.33000
C1730       C  0.86760709  0.35371584  0.30726179     0.36000
H1731       H  0.84771056  0.34355846  0.25793453     0.16400
O1732       O  0.88138950  0.42694318  0.25397255    -0.60500
H1733       H  0.89558857  0.41279375  0.32111490     0.16400
O1734       O  0.86530338  0.32992284  0.32494039    -0.60600
H1735       H  0.84117317  0.34386043  0.33196310     0.43400
H1736       H  0.85540969  0.44535768  0.25216452     0.43400
C1737       C  0.75034148  0.05138686  0.25721549    -0.05700
C1738       C  0.77613685  0.03716729  0.24160004    -0.33100
C1739       C  0.77286370  0.99173552  0.23363344     0.36100
C1740       C  0.74318823  0.95961457  0.24118610    -0.06100
C1741       C  0.71732706  0.97394568  0.25672950    -0.33000
C1742       C  0.72043628  0.01933875  0.26462156     0.36000
H1743       H  0.80002781  0.06066164  0.23601271     0.16400
O1744       O  0.79886833  0.97917149  0.21846633    -0.60500
H1745       H  0.69352037  0.95044078  0.26239347     0.16400
O1746       O  0.69427721  0.03176468  0.27975634    -0.60600
H1747       H  0.66989727  0.04662546  0.27326223     0.43400
H1748       H  0.82322259  0.96415963  0.22492557     0.43400
C1749       C  0.69736139  0.28882501  0.25861563    -0.05700
C1750       C  0.68135778  0.27222518  0.24059621    -0.33100
C1751       C  0.65583848  0.30075892  0.22875287     0.36100
C1752       C  0.64585528  0.34725343  0.23471016    -0.06100
C1753       C  0.66262396  0.36413229  0.25253878    -0.33000
C1754       C  0.68772437  0.33542311  0.26448769     0.36000
H1755       H  0.68839335  0.23670071  0.23565492     0.16400
O1756       O  0.64014936  0.28223567  0.21160590    -0.60500
H1757       H  0.65522992  0.39940286  0.25766714     0.16400
O1758       O  0.70342533  0.35389277  0.28164951    -0.60600
H1759       H  0.68129483  0.34906728  0.29165576     0.43400
H1760       H  0.66080699  0.29040168  0.20127839     0.43400
C1761       C  0.66383300  0.14064658  0.32864840    -0.05700
C1762       C  0.65566940  0.09186978  0.32816539    -0.33100
C1763       C  0.61479340  0.07484754  0.32755498     0.36100
C1764       C  0.58093566  0.10677399  0.32775813    -0.06100
C1765       C  0.58921455  0.15521897  0.33022232    -0.33000
C1766       C  0.63005737  0.17220701  0.33065678     0.36000
H1767       H  0.68097375  0.06676582  0.32684715     0.16400
O1768       O  0.60849271  0.02700913  0.32602439    -0.60500
H1769       H  0.56398394  0.18059512  0.33064160     0.16400
O1770       O  0.63637216  0.22007006  0.33188741    -0.60600
H1771       H  0.64025624  0.22646776  0.34616101     0.43400
H1772       H  0.61347082  0.01941093  0.31192169     0.43400
C1773       C  0.89753012  0.09728443  0.26756818    -0.05700
C1774       C  0.90076688  0.04860322  0.27167213    -0.33100
C1775       C  0.92515923  0.01886224  0.25995934     0.36100
C1776       C  0.94744262  0.03740771  0.24377592    -0.06100
C1777       C  0.94511812  0.08613555  0.23986684    -0.33000
C1778       C  0.92081990  0.11604324  0.25164488     0.36000
H1779       H  0.88310921  0.03289897  0.28362740     0.16400
O1780       O  0.92622729  0.97144506  0.26426921    -0.60500
H1781       H  0.96267404  0.10133302  0.22775575     0.16400
O1782       O  0.91911159  0.16321762  0.24695585    -0.60600
H1783       H  0.94176584  0.17804580  0.25470378     0.43400
H1784       H  0.90347455  0.95732460  0.25635329     0.43400
C1785       C  0.89846469  0.33735578  0.46593021    -0.05700
C1786       C  0.90785663  0.37232412  0.45179507    -0.33100
C1787       C  0.88854133  0.41641176  0.45221241     0.36100
C1788       C  0.85892004  0.42652331  0.46686193    -0.06100
C1789       C  0.85077280  0.39276781  0.48162611    -0.33000
C1790       C  0.87044463  0.34836398  0.48127922     0.36000
H1791       H  0.93016820  0.36543269  0.44016071     0.16400
O1792       O  0.89804682  0.44905601  0.43786829    -0.60500
H1793       H  0.82765408  0.39993676  0.49286819     0.16400
O1794       O  0.86011970  0.31519522  0.49524464    -0.60600
H1795       H  0.87765746  0.32269670  0.50686418     0.43400
H1796       H  0.92048207  0.46874278  0.44361473     0.43400
C1797       C  0.00389215  0.95597870  0.50829214    -0.05700
C1798       C  0.97380868  0.98677855  0.51612639    -0.33100
C1799       C  0.96923015  0.03275430  0.50885876     0.36100
C1800       C  0.99479926  0.04876500  0.49332871    -0.06100
C1801       C  0.02491569  0.01799556  0.48550035    -0.33000
C1802       C  0.02957101  0.97202749  0.49281110     0.36000
H1803       H  0.95393693  0.97534820  0.52815212     0.16400
O1804       O  0.93826367  0.06076853  0.51640651    -0.60500
H1805       H  0.04483915  0.02950000  0.47351835     0.16400
O1806       O  0.06077415  0.94413171  0.48541222    -0.60600
H1807       H  0.04859793  0.92850278  0.47366668     0.43400
H1808       H  0.95064721  0.07610722  0.52817273     0.43400
C1809       C  0.89778865  0.18458513  0.39307727    -0.05700
C1810       C  0.88640429  0.14116768  0.38465683    -0.33100
C1811       C  0.86160940  0.13930038  0.36778242     0.36100
C1812       C  0.84721396  0.18141615  0.35890985    -0.06100
C1813       C  0.85839775  0.22504248  0.36731660    -0.33000
C1814       C  0.88375443  0.22684367  0.38421206     0.36000
H1815       H  0.89689006  0.10821414  0.39119089     0.16400
O1816       O  0.85132130  0.09588903  0.36021814    -0.60500
H1817       H  0.84790126  0.25780396  0.36063537     0.16400
O1818       O  0.89405440  0.26992659  0.39205566    -0.60600
H1819       H  0.87219320  0.27661342  0.40199229     0.43400
H1820       H  0.82456695  0.08743513  0.36658710     0.43400
C1821       C  0.05419805  0.28298571  0.49310936    -0.05700
C1822       C  0.06198424  0.32998189  0.48755285    -0.33100
C1823       C  0.08684303  0.35947805  0.49914459     0.36100
C1824       C  0.10493960  0.34233991  0.51682081    -0.06100
C1825       C  0.09805167  0.29481038  0.52211503    -0.33000
C1826       C  0.07314145  0.26525555  0.51044159     0.36000
H1827       H  0.04802886  0.34449381  0.47428801     0.16400
O1828       O  0.09439456  0.40455153  0.49253467    -0.60500
H1829       H  0.11249522  0.28014754  0.53522926     0.16400
O1830       O  0.06783142  0.21902779  0.51608814    -0.60600
H1831       H  0.08988592  0.20121382  0.50905908     0.43400
H1832       H  0.07107888  0.42383568  0.49770371     0.43400
C1833       C  0.08003862  0.14088875  0.42142865    -0.05700
C1834       C  0.11287176  0.17329410  0.41930974    -0.33100
C1835       C  0.15432730  0.15817396  0.41932080     0.36100
C1836       C  0.16381753  0.10970481  0.42173592    -0.06100
C1837       C  0.13089472  0.07697689  0.42179074    -0.33000
C1838       C  0.08940913  0.09209159  0.42165402     0.36000
H1839       H  0.10658007  0.21092505  0.41877921     0.16400
O1840       O  0.18511898  0.19164419  0.41864799    -0.60500
H1841       H  0.13715406  0.03946206  0.42317551     0.16400
O1842       O  0.05851377  0.05882891  0.42307063    -0.60600
H1843       H  0.05629557  0.05137308  0.43735415     0.43400
H1844       H  0.19115757  0.19613082  0.40440173     0.43400
C1845       C  0.84720202  0.09882492  0.48402447    -0.05700
C1846       C  0.82808779  0.11688826  0.50110375    -0.33100
C1847       C  0.80231443  0.08853066  0.51289645     0.36100
C1848       C  0.79529712  0.04069026  0.50790547    -0.06100
C1849       C  0.81270669  0.02330661  0.49032852    -0.33000
C1850       C  0.83820618  0.05175256  0.47844478     0.36000
H1851       H  0.83417003  0.15281477  0.50579764     0.16400
O1852       O  0.78445436  0.10809561  0.52935999    -0.60500
H1853       H  0.80713775  0.98709467  0.48587330     0.16400
O1854       O  0.85525164  0.03237026  0.46175817    -0.60600
H1855       H  0.83604774  0.04123405  0.45089995     0.43400
H1856       H  0.75698880  0.11999677  0.52489042     0.43400
loop_ 
_geom_bond_atom_site_label_1 
_geom_bond_atom_site_label_2 
_geom_bond_distance 
_geom_bond_site_symmetry_2 
_ccdc_geom_bond_type 
Fe1          O17   2.108       .  S
Fe1           O7   2.036       .  S
Fe1          O14   2.051   1_655  S
Fe1           O6   2.094   1_655  S
Fe1          O12   1.939       .  S
Fe2           O5   2.089       .  S
Fe2           O9   2.035       .  S
Fe2          O13   2.083   1_655  S
Fe2          O18   2.030       .  S
Fe2          O12   1.940       .  S
Fe3          O21   2.059       .  S
Fe3           O8   2.100       .  S
Fe3          O15   2.105       .  S
Fe3           O4   2.056   1_655  S
Fe3          O12   1.947       .  S
O4           C11   1.269       .  A
O5           C19   1.274       .  A
O6           C11   1.277       .  A
O7           C10   1.268       .  A
O8           C20   1.276       .  A
O9           C22   1.268       .  A
C10          O15   1.277       .  A
C10        C1785   1.484       .  S
C11        C1821   1.487       .  S
O13          C16   1.270       .  A
O14          C16   1.266       .  A
C16        C1833   1.487       .  S
O17          C22   1.279       .  A
O18          C20   1.263       .  A
C19          O21   1.271       .  A
C19        C1845   1.492       .  S
C20        C1800   1.476       .  S
C22        C1809   1.481       .  S
Fe23         O39   2.102       .  S
Fe23         O29   2.022       .  S
Fe23         O36   2.046       .  S
Fe23         O28   2.091       .  S
Fe23         O34   1.933       .  S
Fe24         O27   2.089       .  S
Fe24         O31   2.040       .  S
Fe24         O35   2.089       .  S
Fe24         O40   2.026       .  S
Fe24         O34   1.936       .  S
Fe25         O43   2.052       .  S
Fe25         O30   2.109       .  S
Fe25         O37   2.108       .  S
Fe25         O26   2.052       .  S
Fe25         O34   1.946       .  S
O26          C33   1.269       .  A
O27          C41   1.275       .  A
O28          C33   1.275       .  A
O29          C32   1.265       .  A
O30          C42   1.279       .  A
O31          C44   1.268       .  A
C32          O37   1.278       .  A
C32        C1725   1.482       .  S
C33        C1749   1.487       .  S
O35          C38   1.273       .  A
O36          C38   1.265       .  A
C38        C1761   1.486       .  S
O39          C44   1.277       .  A
O40          C42   1.263       .  A
C41          O43   1.268       .  A
C41        C1773   1.489       .  S
C42        C1737   1.477       .  S
C44        C1812   1.482       .  S
Fe45         O61   2.051       .  S
Fe45         O51   2.091       .  S
Fe45         O58   2.106       .  S
Fe45         O50   2.037       .  S
Fe45         O56   1.935       .  S
Fe46         O49   2.035       .  S
Fe46         O53   2.097       .  S
Fe46         O57   2.052       .  S
Fe46         O62   2.087       .  S
Fe46         O56   1.936       .  S
Fe47         O65   2.100       .  S
Fe47         O52   2.049       .  S
Fe47         O59   2.053       .  S
Fe47         O48   2.098       .  S
Fe47         O56   1.942       .  S
O48          C55   1.276       .  A
O49          C63   1.266       .  A
O50          C55   1.270       .  A
O51          C54   1.274       .  A
O52          C64   1.268       .  A
O53          C66   1.275       .  A
C54          O59   1.269       .  A
C54        C1704   1.487       .  S
C55        C1653   1.471       .  S
O57          C60   1.267       .  A
O58          C60   1.276       .  A
C60        C1680   1.478       .  S
O61          C66   1.269       .  A
O62          C64   1.273       .  A
C63          O65   1.278       .  A
C63        C1665   1.478       .  S
C64        C1689   1.484       .  S
C66        C1713   1.490       .  S
Fe67         O83   2.046       .  S
Fe67         O73   2.102       .  S
Fe67         O80   2.113       .  S
Fe67         O72   2.030       .  S
Fe67         O78   1.934       .  S
Fe68         O71   2.032       .  S
Fe68         O75   2.097       .  S
Fe68         O79   2.048       .  S
Fe68         O84   2.094       .  S
Fe68         O78   1.939       .  S
Fe69         O87   2.104       .  S
Fe69         O74   2.051       .  S
Fe69         O81   2.056       .  S
Fe69         O70   2.106       .  S
Fe69         O78   1.940       .  S
O70          C77   1.278       .  A
O71          C85   1.265       .  A
O72          C77   1.268       .  A
O73          C76   1.277       .  A
O74          C86   1.268       .  A
O75          C88   1.275       .  A
C76          O81   1.269       .  A
C76        C1629   1.490       .  S
C77        C1608   1.477       .  S
O79          C82   1.267       .  A
O80          C82   1.278       .  A
C82        C1677   1.481       .  S
O83          C88   1.268       .  A
O84          C86   1.273       .  A
C85          O87   1.280       .  A
C85        C1740   1.476       .  S
C86        C1617   1.489       .  S
C88        C1641   1.487       .  S
Fe89        O105   2.100       .  S
Fe89         O95   2.031       .  S
Fe89        O102   2.052       .  S
Fe89         O94   2.089       .  S
Fe89        O100   1.933       .  S
Fe90         O93   2.085       .  S
Fe90         O97   2.040       .  S
Fe90        O101   2.083       .  S
Fe90        O106   2.036       .  S
Fe90        O100   1.939       .  S
Fe91        O109   2.051       .  S
Fe91         O96   2.095       .  S
Fe91        O103   2.101       .  S
Fe91         O92   2.050       .  S
Fe91        O100   1.947       .  S
O92          C99   1.269       .  A
O93         C107   1.273       .  A
O94          C99   1.276       .  A
O95          C98   1.266       .  A
O96         C108   1.275       .  A
O97         C110   1.268       .  A
C98         O103   1.275       .  A
C98        C1533   1.479       .  S
C99        C1569   1.477       .  S
O101        C104   1.271       .  A
O102        C104   1.266       .  A
C104       C1581   1.490       .  S
O105        C110   1.277       .  A
O106        C108   1.264       .  A
C107        O109   1.270       .  A
C107       C1593   1.486       .  S
C108       C1548   1.470       .  S
C110       C1557   1.483       .  S
Fe111       O127   2.109       .  S
Fe111       O117   2.040       .  S
Fe111       O124   2.057       .  S
Fe111       O116   2.095       .  S
Fe111       O122   1.938       .  S
Fe112       O115   2.083       .  S
Fe112       O119   2.036       .  S
Fe112       O123   2.080       .  S
Fe112       O128   2.033       .  S
Fe112       O122   1.940       .  S
Fe113       O131   2.056       .  S
Fe113       O118   2.099       .  S
Fe113       O125   2.096       .  S
Fe113       O114   2.053       .  S
Fe113       O122   1.946       .  S
O114        C121   1.269       .  A
O115        C129   1.272       .  A
O116        C121   1.277       .  A
O117        C120   1.269       .  A
O118        C130   1.277       .  A
O119        C132   1.268       .  A
C120        O125   1.276       .  A
C120       C1485   1.480       .  S
C121       C1497   1.490       .  S
O123        C126   1.269       .  A
O124        C126   1.268       .  A
C126       C1509   1.488       .  S
O127        C132   1.279       .  A
O128        C130   1.265       .  A
C129        O131   1.270       .  A
C129       C1524   1.490       .  S
C130       C1668   1.479       .  S
C132       C1560   1.482       .  S
Fe133       O149   2.044       .  S
Fe133       O139   2.103       .  S
Fe133       O146   2.110       .  S
Fe133       O138   2.025       .  S
Fe133       O144   1.928       .  S
Fe134       O137   2.035       .  S
Fe134       O141   2.085       .  S
Fe134       O145   2.038       .  S
Fe134       O150   2.091       .  S
Fe134       O144   1.932       .  S
Fe135       O153   2.100       .  S
Fe135       O140   2.051       .  S
Fe135       O147   2.045       .  S
Fe135       O136   2.109       .  S
Fe135       O144   1.939       .  S
O136        C143   1.277       .  A
O137        C151   1.264       .  A
O138        C143   1.265       .  A
O139        C142   1.279       .  A
O140        C152   1.269       .  A
O141        C154   1.272       .  A
C142        O147   1.268       .  A
C142       C1461   1.487       .  S
C143       C1425   1.482       .  S
O145        C148   1.268       .  A
O146        C148   1.280       .  A
C148       C1440   1.486       .  S
O149        C154   1.265       .  A
O150        C152   1.275       .  A
C151        O153   1.277       .  A
C151       C1545   1.469       .  S
C152       C1449   1.489       .  S
C154       C1476   1.482       .  S
Fe155       O171   2.056   1_455  S
Fe155       O161   2.098   1_455  S
Fe155       O168   2.105       .  S
Fe155       O160   2.034       .  S
Fe155       O166   1.936       .  S
Fe156       O159   2.028       .  S
Fe156       O163   2.085   1_455  S
Fe156       O167   2.038       .  S
Fe156       O172   2.088       .  S
Fe156       O166   1.939       .  S
Fe157       O175   2.104       .  S
Fe157       O162   2.053       .  S
Fe157       O169   2.051   1_455  S
Fe157       O158   2.105       .  S
Fe157       O166   1.947       .  S
O158        C165   1.277       .  A
O159        C173   1.263       .  A
O160        C165   1.268       .  A
O161        C164   1.277       .  A
O162        C174   1.269       .  A
O163        C176   1.271       .  A
C164        O169   1.268       .  A
C164       C1401   1.484       .  S
C165       C1380   1.486       .  S
O167        C170   1.268       .  A
O168        C170   1.278       .  A
C170       C1437   1.478       .  S
O171        C176   1.269       .  A
O172        C174   1.274       .  A
C173        O175   1.277       .  A
C173       C1797   1.476       .  S
C174       C1389   1.488       .  S
C176       C1413   1.489       .  S
Fe177       O193   2.051       .  S
Fe177       O183   2.098   1_565  S
Fe177       O190   2.105       .  S
Fe177       O182   2.023   1_565  S
Fe177       O188   1.931       .  S
Fe178       O181   2.026       .  S
Fe178       O185   2.093       .  S
Fe178       O189   2.034       .  S
Fe178       O194   2.097       .  S
Fe178       O188   1.931       .  S
Fe179       O197   2.104       .  S
Fe179       O184   2.052       .  S
Fe179       O191   2.050       .  S
Fe179       O180   2.108   1_565  S
Fe179       O188   1.942       .  S
O180        C187   1.277       .  A
O181        C195   1.262       .  A
O182        C187   1.266       .  A
O183        C186   1.276       .  A
O184        C196   1.269       .  A
O185        C198   1.274       .  A
C186        O191   1.269   1_545  A
C186       C1521   1.480       .  S
C187       C1329   1.482       .  S
O189        C192   1.267       .  A
O190        C192   1.277       .  A
C192       C1353   1.480       .  S
O193        C198   1.268       .  A
O194        C196   1.277       .  A
C195        O197   1.278       .  A
C195       C1341   1.477       .  S
C196       C1368   1.492       .  S
C198       C1716   1.491       .  S
Fe199       O215   2.048   1_455  S
Fe199       O205   2.099   1_465  S
Fe199       O212   2.100       .  S
Fe199       O204   2.026   1_565  S
Fe199       O210   1.934       .  S
Fe200       O203   2.031   1_455  S
Fe200       O207   2.095   1_455  S
Fe200       O211   2.042       .  S
Fe200       O216   2.100       .  S
Fe200       O210   1.934       .  S
Fe201       O219   2.098       .  S
Fe201       O206   2.054       .  S
Fe201       O213   2.046   1_455  S
Fe201       O202   2.105   1_565  S
Fe201       O210   1.942       .  S
O202        C209   1.277       .  A
O203        C217   1.264   1_655  A
O204        C209   1.266       .  A
O205        C208   1.277       .  A
O206        C218   1.269       .  A
O207        C220   1.274       .  A
C208        O213   1.268   1_545  A
C208       C1776   1.482       .  S
C209       C1293   1.483       .  S
O211        C214   1.268       .  A
O212        C214   1.277       .  A
C214       C1356   1.481       .  S
O215        C220   1.267       .  A
O216        C218   1.277       .  A
C217        O219   1.276       .  A
C217       C1308   1.471   1_455  S
C218       C1320   1.495       .  S
C220       C1644   1.491       .  S
Fe221       O237   2.098       .  S
Fe221       O227   2.027       .  S
Fe221       O234   2.042   1_655  S
Fe221       O226   2.089   1_655  S
Fe221       O232   1.931       .  S
Fe222       O225   2.099       .  S
Fe222       O229   2.047       .  S
Fe222       O233   2.102   1_655  S
Fe222       O238   2.031       .  S
Fe222       O232   1.934       .  S
Fe223       O241   2.056       .  S
Fe223       O228   2.100       .  S
Fe223       O235   2.104       .  S
Fe223       O224   2.056       .  S
Fe223       O232   1.939       .  S
O224        C231   1.269   1_655  A
O225        C239   1.274       .  A
O226        C231   1.275       .  A
O227        C230   1.267       .  A
O228        C240   1.279       .  A
O229        C242   1.267       .  A
C230        O235   1.277       .  A
C230       C1728   1.485       .  S
C231       C1269   1.489       .  S
O233        C236   1.276       .  A
O234        C236   1.266       .  A
C236       C1281   1.489       .  S
O237        C242   1.275       .  A
O238        C240   1.266       .  A
C239        O241   1.269       .  A
C239       C1632   1.496       .  S
C240       C1305   1.471       .  S
C242       C1257   1.469       .  S
Fe243       O259   2.096       .  S
Fe243       O249   2.037       .  S
Fe243       O256   2.040       .  S
Fe243       O248   2.094       .  S
Fe243       O254   1.934       .  S
Fe244       O247   2.095       .  S
Fe244       O251   2.049       .  S
Fe244       O255   2.101       .  S
Fe244       O260   2.042       .  S
Fe244       O254   1.935       .  S
Fe245       O263   2.047       .  S
Fe245       O250   2.100       .  S
Fe245       O257   2.105       .  S
Fe245       O246   2.049       .  S
Fe245       O254   1.935       .  S
O246        C253   1.267       .  A
O247        C261   1.276       .  A
O248        C253   1.276       .  A
O249        C252   1.267       .  A
O250        C262   1.278       .  A
O251        C264   1.267       .  A
C252        O257   1.277       .  A
C252       C1788   1.473       .  S
C253       C1236   1.485       .  S
O255        C258   1.276       .  A
O256        C258   1.268       .  A
C258       C1245   1.489       .  S
O259        C264   1.274       .  A
O260        C262   1.267       .  A
C261        O263   1.267       .  A
C261       C1404   1.490       .  S
C262       C1224   1.478       .  S
C264       C1260   1.473       .  S
Fe265       O281   2.032       .  S
Fe265       O271   2.089   1_565  S
Fe265       O278   2.101       .  S
Fe265       O270   2.021   1_565  S
Fe265       O276   1.926       .  S
Fe266       O269   2.031       .  S
Fe266       O273   2.100       .  S
Fe266       O277   2.051       .  S
Fe266       O282   2.090       .  S
Fe266       O276   1.930       .  S
Fe267       O285   2.102       .  S
Fe267       O272   2.046       .  S
Fe267       O279   2.049       .  S
Fe267       O268   2.106   1_565  S
Fe267       O276   1.938       .  S
O268        C275   1.278       .  A
O269        C283   1.265       .  A
O270        C275   1.266       .  A
O271        C274   1.274       .  A
O272        C284   1.267       .  A
O273        C286   1.276       .  A
C274        O279   1.268   1_545  A
C274       C1596   1.481       .  S
C275       C1176   1.481       .  S
O277        C280   1.267       .  A
O278        C280   1.275       .  A
C280       C1197   1.472       .  S
O281        C286   1.265       .  A
O282        C284   1.275       .  A
C283        O285   1.278       .  A
C283       C1185   1.476       .  S
C284       C1209   1.487       .  S
C286       C1473   1.485       .  S
Fe287       O303   2.044       .  S
Fe287       O293   2.096   1_565  S
Fe287       O300   2.104       .  S
Fe287       O292   2.027   1_565  S
Fe287       O298   1.934       .  S
Fe288       O291   2.042       .  S
Fe288       O295   2.101       .  S
Fe288       O299   2.052       .  S
Fe288       O304   2.093       .  S
Fe288       O298   1.935       .  S
Fe289       O307   2.102       .  S
Fe289       O294   2.053       .  S
Fe289       O301   2.058       .  S
Fe289       O290   2.102   1_565  S
Fe289       O298   1.940       .  S
O290        C297   1.276       .  A
O291        C305   1.268       .  A
O292        C297   1.266       .  A
O293        C296   1.276       .  A
O294        C306   1.269       .  A
O295        C308   1.276       .  A
C296        O301   1.271   1_545  A
C296       C1848   1.491       .  S
C297       C1149   1.481       .  S
O299        C302   1.267       .  A
O300        C302   1.276       .  A
C302       C1200   1.483       .  S
O303        C308   1.267       .  A
O304        C306   1.275       .  A
C305        O307   1.278       .  A
C305       C1221   1.480       .  S
C306       C1161   1.491       .  S
C308       C1416   1.491       .  S
Fe309       O325   2.108       .  S
Fe309       O315   2.028       .  S
Fe309       O322   2.049       .  S
Fe309       O314   2.100       .  S
Fe309       O320   1.930       .  S
Fe310       O313   2.102       .  S
Fe310       O317   2.042       .  S
Fe310       O321   2.095       .  S
Fe310       O326   2.028       .  S
Fe310       O320   1.937       .  S
Fe311       O329   2.045       .  S
Fe311       O316   2.102       .  S
Fe311       O323   2.109       .  S
Fe311       O312   2.048       .  S
Fe311       O320   1.942       .  S
O312        C319   1.268       .  A
O313        C327   1.277       .  A
O314        C319   1.278       .  A
O315        C318   1.266       .  A
O316        C328   1.278       .  A
O317        C330   1.269       .  A
C318        O323   1.277       .  A
C318       C1536   1.486       .  S
C319       C1125   1.485       .  S
O321        C324   1.275       .  A
O322        C324   1.267       .  A
C324       C1140   1.491       .  S
O325        C330   1.278       .  A
O326        C328   1.263       .  A
C327        O329   1.267       .  A
C327       C1464   1.490       .  S
C328       C1188   1.476       .  S
C330       C1113   1.486       .  S
Fe331       O347   2.112       .  S
Fe331       O337   2.036       .  S
Fe331       O344   2.059       .  S
Fe331       O336   2.104       .  S
Fe331       O342   1.936       .  S
Fe332       O335   2.087       .  S
Fe332       O339   2.037       .  S
Fe332       O343   2.086       .  S
Fe332       O348   2.036       .  S
Fe332       O342   1.935       .  S
Fe333       O351   2.053       .  S
Fe333       O338   2.098       .  S
Fe333       O345   2.102       .  S
Fe333       O334   2.045       .  S
Fe333       O342   1.942       .  S
O334        C341   1.267       .  A
O335        C349   1.274       .  A
O336        C341   1.278       .  A
O337        C340   1.267       .  A
O338        C350   1.277       .  A
O339        C352   1.267       .  A
C340        O345   1.276       .  A
C340       C1488   1.470       .  S
C341       C1092   1.482       .  S
O343        C346   1.272       .  A
O344        C346   1.270       .  A
C346       C1104   1.491       .  S
O347        C352   1.279       .  A
O348        C350   1.264       .  A
C349        O351   1.270       .  A
C349       C1701   1.488       .  S
C350       C1344   1.479       .  S
C352       C1116   1.486       .  S
Fe353       O369   2.039       .  S
Fe353       O359   2.093       .  S
Fe353       O366   2.101       .  S
Fe353       O358   2.029       .  S
Fe353       O364   1.933       .  S
Fe354       O357   2.033       .  S
Fe354       O361   2.099       .  S
Fe354       O365   2.048       .  S
Fe354       O370   2.095       .  S
Fe354       O364   1.935       .  S
Fe355       O373   2.104       .  S
Fe355       O360   2.049       .  S
Fe355       O367   2.055       .  S
Fe355       O356   2.108       .  S
Fe355       O364   1.935       .  S
O356        C363   1.279       .  A
O357        C371   1.266       .  A
O358        C363   1.268       .  A
O359        C362   1.275       .  A
O360        C372   1.267       .  A
O361        C374   1.276       .  A
C362        O367   1.268       .  A
C362       C1065   1.484       .  S
C363       C1656   1.481       .  S
O365        C368   1.267       .  A
O366        C368   1.276       .  A
C368       C1056   1.478       .  S
O369        C374   1.267       .  A
O370        C372   1.275       .  A
C371        O373   1.279       .  A
C371       C1041   1.483       .  S
C372       C1500   1.490       .  S
C374       C1077   1.487       .  S
Fe375       O391   2.045       .  S
Fe375       O381   2.094       .  S
Fe375       O388   2.103       .  S
Fe375       O380   2.028       .  S
Fe375       O386   1.930       .  S
Fe376       O379   2.029       .  S
Fe376       O383   2.098       .  S
Fe376       O387   2.048       .  S
Fe376       O392   2.089       .  S
Fe376       O386   1.935       .  S
Fe377       O395   2.105       .  S
Fe377       O382   2.053       .  S
Fe377       O389   2.055       .  S
Fe377       O378   2.111       .  S
Fe377       O386   1.940       .  S
O378        C385   1.279       .  A
O379        C393   1.266       .  A
O380        C385   1.268       .  A
O381        C384   1.275       .  A
O382        C394   1.269       .  A
O383        C396   1.275       .  A
C384        O389   1.269       .  A
C384       C1020   1.493       .  S
C385       C1605   1.487       .  S
O387        C390   1.267       .  A
O388        C390   1.276       .  A
C390       C1053   1.471       .  S
O391        C396   1.267       .  A
O392        C394   1.273       .  A
C393        O395   1.280       .  A
C393       C1005   1.477       .  S
C394       C1752   1.489       .  S
C396       C1032   1.486       .  S
Fe397       O413   2.102       .  S
Fe397       O403   2.028   1_545  S
Fe397       O410   2.053       .  S
Fe397       O402   2.097   1_545  S
Fe397       O408   1.937       .  S
Fe398       O401   2.095       .  S
Fe398       O405   2.046       .  S
Fe398       O409   2.090       .  S
Fe398       O414   2.035       .  S
Fe398       O408   1.936       .  S
Fe399       O417   2.051       .  S
Fe399       O404   2.099       .  S
Fe399       O411   2.097   1_545  S
Fe399       O400   2.047       .  S
Fe399       O408   1.942       .  S
O400        C407   1.269   1_545  A
O401        C415   1.275       .  A
O402        C407   1.276       .  A
O403        C406   1.267       .  A
O404        C416   1.277       .  A
O405        C418   1.269       .  A
C406        O411   1.276       .  A
C406        C957   1.473       .  S
C407       C1392   1.487       .  S
O409        C412   1.273       .  A
O410        C412   1.269       .  A
C412       C1836   1.490       .  S
O413        C418   1.277       .  A
O414        C416   1.265       .  A
C415        O417   1.269       .  A
C415        C993   1.492       .  S
C416        C969   1.479       .  S
C418        C981   1.486       .  S
Fe419       O435   2.107       .  S
Fe419       O425   2.027   1_545  S
Fe419       O432   2.048       .  S
Fe419       O424   2.098   1_545  S
Fe419       O430   1.929       .  S
Fe420       O423   2.093       .  S
Fe420       O427   2.039       .  S
Fe420       O431   2.089       .  S
Fe420       O436   2.028       .  S
Fe420       O430   1.934       .  S
Fe421       O439   2.046       .  S
Fe421       O426   2.101       .  S
Fe421       O433   2.100   1_545  S
Fe421       O422   2.050       .  S
Fe421       O430   1.946       .  S
O422        C429   1.269   1_545  A
O423        C437   1.276       .  A
O424        C429   1.277       .  A
O425        C428   1.267       .  A
O426        C438   1.276       .  A
O427        C440   1.267       .  A
C428        O433   1.275       .  A
C428        C936   1.476       .  S
C429       C1620   1.489       .  S
O431        C434   1.274       .  A
O432        C434   1.267       .  A
C434       C1764   1.489       .  S
O435        C440   1.278       .  A
O436        C438   1.263       .  A
C437        O439   1.267       .  A
C437        C948   1.487       .  S
C438       C1008   1.478       .  S
C440        C984   1.483       .  S
Fe441       O457   2.058   1_455  S
Fe441       O447   2.092   1_455  S
Fe441       O454   2.103       .  S
Fe441       O446   2.040       .  S
Fe441       O452   1.937       .  S
Fe442       O445   2.035       .  S
Fe442       O449   2.081   1_455  S
Fe442       O453   2.040       .  S
Fe442       O458   2.085       .  S
Fe442       O452   1.940       .  S
Fe443       O461   2.093       .  S
Fe443       O448   2.048       .  S
Fe443       O455   2.047   1_455  S
Fe443       O444   2.095       .  S
Fe443       O452   1.941       .  S
O444        C451   1.275       .  A
O445        C459   1.265       .  A
O446        C451   1.269       .  A
O447        C450   1.275       .  A
O448        C460   1.268       .  A
O449        C462   1.271       .  A
C450        O455   1.268       .  A
C450        C912   1.484       .  S
C451       C1428   1.474       .  S
O453        C456   1.268       .  A
O454        C456   1.277       .  A
C456        C900   1.479       .  S
O457        C462   1.269       .  A
O458        C460   1.274       .  A
C459        O461   1.276       .  A
C459        C885   1.476   1_455  S
C460       C1572   1.486       .  S
C462        C924   1.489       .  S
Fe463       O479   2.056       .  S
Fe463       O469   2.097       .  S
Fe463       O476   2.105       .  S
Fe463       O468   2.034       .  S
Fe463       O474   1.935       .  S
Fe464       O467   2.035       .  S
Fe464       O471   2.083       .  S
Fe464       O475   2.039       .  S
Fe464       O480   2.098       .  S
Fe464       O474   1.937       .  S
Fe465       O483   2.104       .  S
Fe465       O470   2.046       .  S
Fe465       O477   2.048       .  S
Fe465       O466   2.105       .  S
Fe465       O474   1.935       .  S
O466        C473   1.277       .  A
O467        C481   1.266       .  A
O468        C473   1.268       .  A
O469        C472   1.276       .  A
O470        C482   1.266       .  A
O471        C484   1.272       .  A
C472        O477   1.268       .  A
C472        C861   1.478       .  S
C473       C1377   1.476       .  S
O475        C478   1.270       .  A
O476        C478   1.278       .  A
C478        C897   1.483       .  S
O479        C484   1.269       .  A
O480        C482   1.274       .  A
C481        O483   1.279       .  A
C481        C972   1.479       .  S
C482       C1824   1.490       .  S
C484        C873   1.483       .  S
Fe485       O501   2.106       .  S
Fe485       O491   2.035   1_545  S
Fe485       O498   2.053   1_655  S
Fe485       O490   2.096   1_645  S
Fe485       O496   1.935       .  S
Fe486       O489   2.091       .  S
Fe486       O493   2.039       .  S
Fe486       O497   2.086   1_655  S
Fe486       O502   2.032       .  S
Fe486       O496   1.938       .  S
Fe487       O505   2.047       .  S
Fe487       O492   2.099       .  S
Fe487       O499   2.104   1_545  S
Fe487       O488   2.049   1_655  S
Fe487       O496   1.941       .  S
O488        C495   1.268       .  A
O489        C503   1.275       .  A
O490        C495   1.276   1_565  A
O491        C494   1.268       .  A
O492        C504   1.277       .  A
O493        C506   1.268       .  A
C494        O499   1.276       .  A
C494        C825   1.477       .  S
C495       C1452   1.481   1_545  S
O497        C500   1.273       .  A
O498        C500   1.268       .  A
C500       C1584   1.485       .  S
O501        C506   1.278       .  A
O502        C504   1.263       .  A
C503        O505   1.268       .  A
C503        C852   1.485       .  S
C504        C888   1.477       .  S
C506        C837   1.485       .  S
Fe507       O523   2.101       .  S
Fe507       O513   2.034   1_545  S
Fe507       O520   2.053       .  S
Fe507       O512   2.091   1_545  S
Fe507       O518   1.935       .  S
Fe508       O511   2.090       .  S
Fe508       O515   2.043       .  S
Fe508       O519   2.085       .  S
Fe508       O524   2.033       .  S
Fe508       O518   1.937       .  S
Fe509       O527   2.047       .  S
Fe509       O514   2.103       .  S
Fe509       O521   2.099   1_545  S
Fe509       O510   2.050       .  S
Fe509       O518   1.945       .  S
O510        C517   1.269   1_545  A
O511        C525   1.275       .  A
O512        C517   1.275       .  A
O513        C516   1.268       .  A
O514        C526   1.277       .  A
O515        C528   1.268       .  A
C516        O521   1.276       .  A
C516        C804   1.480       .  S
C517       C1692   1.488       .  S
O519        C522   1.272       .  A
O520        C522   1.268       .  A
C522       C1512   1.488       .  S
O523        C528   1.276       .  A
O524        C526   1.265       .  A
C525        O527   1.268       .  A
C525        C813   1.487       .  S
C526       C1044   1.484       .  S
C528        C840   1.479       .  S
Fe529       O545   2.109       .  S
Fe529       O535   2.036       .  S
Fe529       O542   2.061   1_655  S
Fe529       O534   2.101   1_655  S
Fe529       O540   1.935       .  S
Fe530       O533   2.094       .  S
Fe530       O537   2.041       .  S
Fe530       O541   2.086   1_655  S
Fe530       O546   2.033       .  S
Fe530       O540   1.937       .  S
Fe531       O549   2.051       .  S
Fe531       O536   2.091       .  S
Fe531       O543   2.096       .  S
Fe531       O532   2.050   1_655  S
Fe531       O540   1.941       .  S
O532        C539   1.268       .  A
O533        C547   1.275       .  A
O534        C539   1.277       .  A
O535        C538   1.268       .  A
O536        C548   1.276       .  A
O537        C550   1.269       .  A
C538        O543   1.275       .  A
C538        C801   1.470       .  S
C539       C1365   1.488       .  S
O541        C544   1.272       .  A
O542        C544   1.270       .  A
C544       C1101   1.488       .  S
O545        C550   1.278       .  A
O546        C548   1.265       .  A
C547        O549   1.268       .  A
C547       C1068   1.492       .  S
C548        C777   1.474       .  S
C550        C789   1.486       .  S
Fe551       O567   2.104       .  S
Fe551       O557   2.034       .  S
Fe551       O564   2.056       .  S
Fe551       O556   2.092       .  S
Fe551       O562   1.934       .  S
Fe552       O555   2.089       .  S
Fe552       O559   2.043       .  S
Fe552       O563   2.086       .  S
Fe552       O568   2.034       .  S
Fe552       O562   1.939       .  S
Fe553       O571   2.051       .  S
Fe553       O558   2.103       .  S
Fe553       O565   2.107       .  S
Fe553       O554   2.048       .  S
Fe553       O562   1.946       .  S
O554        C561   1.269       .  A
O555        C569   1.274       .  A
O556        C561   1.276       .  A
O557        C560   1.267       .  A
O558        C570   1.277       .  A
O559        C572   1.268       .  A
C560        O565   1.277       .  A
C560        C828   1.486       .  S
C561       C1212   1.483       .  S
O563        C566   1.272       .  A
O564        C566   1.267       .  A
C566       C1137   1.490       .  S
O567        C572   1.278       .  A
O568        C570   1.264       .  A
C569        O571   1.270       .  A
C569        C909   1.488       .  S
C570        C765   1.474       .  S
C572        C792   1.482       .  S
Fe573       O589   2.058   1_455  S
Fe573       O579   2.097   1_455  S
Fe573       O586   2.113       .  S
Fe573       O578   2.036       .  S
Fe573       O584   1.936       .  S
Fe574       O577   2.035   1_455  S
Fe574       O581   2.084   1_455  S
Fe574       O585   2.040       .  S
Fe574       O590   2.090       .  S
Fe574       O584   1.939       .  S
Fe575       O593   2.087       .  S
Fe575       O580   2.049       .  S
Fe575       O587   2.045   1_455  S
Fe575       O576   2.087       .  S
Fe575       O584   1.944       .  S
O576        C583   1.273       .  A
O577        C591   1.266   1_655  A
O578        C583   1.268       .  A
O579        C582   1.277       .  A
O580        C592   1.268       .  A
O581        C594   1.271       .  A
C582        O587   1.268       .  A
C582        C816   1.486       .  S
C583       C1332   1.474       .  S
O585        C588   1.269       .  A
O586        C588   1.280       .  A
C588        C756   1.492       .  S
O589        C594   1.268       .  A
O590        C592   1.274       .  A
C591        O593   1.274       .  A
C591        C780   1.474   1_455  S
C592       C1089   1.489       .  S
C594       C1080   1.490       .  S
Fe595       O611   2.050       .  S
Fe595       O601   2.093       .  S
Fe595       O608   2.099       .  S
Fe595       O600   2.027       .  S
Fe595       O606   1.937       .  S
Fe596       O599   2.033       .  S
Fe596       O603   2.096       .  S
Fe596       O607   2.046       .  S
Fe596       O612   2.102       .  S
Fe596       O606   1.940       .  S
Fe597       O615   2.100       .  S
Fe597       O602   2.046       .  S
Fe597       O609   2.047       .  S
Fe597       O598   2.101       .  S
Fe597       O606   1.944       .  S
O598        C605   1.276       .  A
O599        C613   1.265       .  A
O600        C605   1.265       .  A
O601        C604   1.276       .  A
O602        C614   1.268       .  A
O603        C616   1.275       .  A
C604        O609   1.268       .  A
C604        C945   1.479       .  S
C605       C1296   1.476       .  S
O607        C610   1.269       .  A
O608        C610   1.276       .  A
C610        C753   1.480       .  S
O611        C616   1.267       .  A
O612        C614   1.277       .  A
C613        O615   1.276       .  A
C613        C744   1.481       .  S
C614       C1272   1.489       .  S
C616       C1029   1.492       .  S
Fe617       O633   2.103       .  S
Fe617       O623   2.025       .  S
Fe617       O630   2.043       .  S
Fe617       O622   2.101       .  S
Fe617       O628   1.935       .  S
Fe618       O621   2.091       .  S
Fe618       O625   2.043       .  S
Fe618       O629   2.096       .  S
Fe618       O634   2.033       .  S
Fe618       O628   1.937       .  S
Fe619       O637   2.057       .  S
Fe619       O624   2.101       .  S
Fe619       O631   2.107       .  S
Fe619       O620   2.055       .  S
Fe619       O628   1.937       .  S
O620        C627   1.269       .  A
O621        C635   1.273       .  A
O622        C627   1.276       .  A
O623        C626   1.265       .  A
O624        C636   1.279       .  A
O625        C638   1.267       .  A
C626        O631   1.278       .  A
C626        C933   1.484       .  S
C627       C1317   1.487       .  S
O629        C632   1.275       .  A
O630        C632   1.267       .  A
C632       C1284   1.485       .  S
O633        C638   1.277       .  A
O634        C636   1.267       .  A
C635        O637   1.270       .  A
C635       C1017   1.490       .  S
C636        C741   1.479       .  S
C638        C729   1.481       .  S
Fe639       O655   2.100       .  S
Fe639       O645   2.028       .  S
Fe639       O652   2.050       .  S
Fe639       O644   2.087       .  S
Fe639       O650   1.937       .  S
Fe640       O643   2.075       .  S
Fe640       O647   2.044       .  S
Fe640       O651   2.088       .  S
Fe640       O656   2.034       .  S
Fe640       O650   1.936       .  S
Fe641       O659   2.060       .  S
Fe641       O646   2.102       .  S
Fe641       O653   2.100       .  S
Fe641       O642   2.062       .  S
Fe641       O650   1.947       .  S
O642        C649   1.269       .  A
O643        C657   1.270       .  A
O644        C649   1.275       .  A
O645        C648   1.268       .  A
O646        C658   1.279       .  A
O647        C660   1.266       .  A
C648        O653   1.277       .  A
C648        C960   1.483       .  S
C649       C1164   1.487       .  S
O651        C654   1.272       .  A
O652        C654   1.267       .  A
C654       C1248   1.482       .  S
O655        C660   1.275       .  A
O656        C658   1.268       .  A
C657        O659   1.268       .  A
C657        C864   1.487       .  S
C658        C720   1.475       .  S
C660        C732   1.467       .  S
Fe661       O677   2.052       .  S
Fe661       O667   2.082       .  S
Fe661       O674   2.098       .  S
Fe661       O666   2.029       .  S
Fe661       O672   1.936       .  S
Fe662       O665   2.031       .  S
Fe662       O669   2.087       .  S
Fe662       O673   2.040       .  S
Fe662       O678   2.094       .  S
Fe662       O672   1.938       .  S
Fe663       O681   2.101       .  S
Fe663       O668   2.049       .  S
Fe663       O675   2.055       .  S
Fe663       O664   2.095       .  S
Fe663       O672   1.944       .  S
O664        C671   1.275       .  A
O665        C679   1.264       .  A
O666        C671   1.267       .  A
O667        C670   1.274       .  A
O668        C680   1.267       .  A
O669        C682   1.272       .  A
C670        O675   1.269       .  A
C670        C849   1.486       .  S
C671       C1173   1.474       .  S
O673        C676   1.268       .  A
O674        C676   1.276       .  A
C676        C705   1.474       .  S
O677        C682   1.268       .  A
O678        C680   1.275       .  A
C679        O681   1.277       .  A
C679        C768   1.473       .  S
C680       C1128   1.490       .  S
C682        C921   1.489       .  S
Fe683       O699   2.042       .  S
Fe683       O689   2.098       .  S
Fe683       O696   2.104       .  S
Fe683       O688   2.022       .  S
Fe683       O694   1.933       .  S
Fe684       O687   2.034       .  S
Fe684       O691   2.089       .  S
Fe684       O695   2.038       .  S
Fe684       O700   2.095       .  S
Fe684       O694   1.936       .  S
Fe685       O703   2.098       .  S
Fe685       O690   2.048       .  S
Fe685       O697   2.051       .  S
Fe685       O686   2.099       .  S
Fe685       O694   1.938       .  S
O686        C693   1.276       .  A
O687        C701   1.265       .  A
O688        C693   1.265       .  A
O689        C692   1.276       .  A
O690        C702   1.267       .  A
O691        C704   1.273       .  A
C692        O697   1.269       .  A
C692        C996   1.488       .  S
C693       C1152   1.473       .  S
O695        C698   1.268       .  A
O696        C698   1.277       .  A
C698        C708   1.486       .  S
O699        C704   1.266       .  A
O700        C702   1.275       .  A
C701        O703   1.277       .  A
C701        C717   1.475       .  S
C702       C1233   1.489       .  S
C704        C876   1.486       .  S
C705        C706   1.405       .  A
C705        C710   1.405       .  A
C706        C707   1.407       .  A
C706        H711   1.084       .  S
C707        C708   1.414       .  A
C707        O712   1.371       .  S
C708        C709   1.406       .  A
C709        C710   1.394       .  A
C709        H713   1.083       .  S
C710        O714   1.372       .  S
O712        H716   0.992       .  S
O714        H715   0.992       .  S
C717        C718   1.406       .  A
C717        C722   1.409       .  A
C718        C719   1.399       .  A
C718        H723   1.084       .  S
C719        C720   1.410       .  A
C719        O724   1.372       .  S
C720        C721   1.403       .  A
C721        C722   1.395       .  A
C721        H725   1.082       .  S
C722        O726   1.372       .  S
O724        H728   0.992       .  S
O726        H727   0.992       .  S
C729        C730   1.404       .  A
C729        C734   1.414       .  A
C730        C731   1.402       .  A
C730        H735   1.083       .  S
C731        C732   1.407       .  A
C731        O736   1.372       .  S
C732        C733   1.398       .  A
C733        C734   1.399       .  A
C733        H737   1.084       .  S
C734        O738   1.372       .  S
O736        H740   0.992       .  S
O738        H739   0.992       .  S
C741        C742   1.407       .  A
C741        C746   1.410       .  A
C742        C743   1.399       .  A
C742        H747   1.084       .  S
C743        C744   1.411       .  A
C743        O748   1.372       .  S
C744        C745   1.407       .  A
C745        C746   1.396       .  A
C745        H749   1.084       .  S
C746        O750   1.372       .  S
O748        H752   0.992       .  S
O750        H751   0.992       .  S
C753        C754   1.405       .  A
C753        C758   1.406       .  A
C754        C755   1.409       .  A
C754        H759   1.084       .  S
C755        C756   1.413       .  A
C755        O760   1.371       .  S
C756        C757   1.408       .  A
C757        C758   1.396       .  A
C757        H761   1.083       .  S
C758        O762   1.372       .  S
O760        H764   0.991       .  S
O762        H763   0.992       .  S
C765        C766   1.405       .  A
C765        C770   1.409       .  A
C766        C767   1.398       .  A
C766        H771   1.084       .  S
C767        C768   1.410       .  A
C767        O772   1.372       .  S
C768        C769   1.404       .  A
C769        C770   1.397       .  A
C769        H773   1.084       .  S
C770        O774   1.372       .  S
O772        H776   0.991       .  S
O774        H775   0.991       .  S
C777        C778   1.404   1_655  A
C777        C782   1.411   1_556  A
C778        C779   1.396       .  A
C778        H783   1.083       .  S
C779        C780   1.411   1_456  A
C779        O784   1.372       .  S
C780        C781   1.404       .  A
C781        C782   1.395       .  A
C781        H785   1.084       .  S
C782        O786   1.372       .  S
O784        H788   0.992       .  S
O786        H787   0.992       .  S
C789        C790   1.405       .  A
C789        C794   1.412       .  A
C790        C791   1.395       .  A
C790        H795   1.084       .  S
C791        C792   1.409       .  A
C791        O796   1.372       .  S
C792        C793   1.406       .  A
C793        C794   1.408       .  A
C793        H797   1.084       .  S
C794        O798   1.371       .  S
O796        H800   0.992       .  S
O798        H799   0.991       .  S
C801        C802   1.405       .  A
C801        C806   1.405       .  A
C802        C803   1.404       .  A
C802        H807   1.084       .  S
C803        C804   1.412       .  A
C803        O808   1.371       .  S
C804        C805   1.406       .  A
C805        C806   1.390       .  A
C805        H809   1.084       .  S
C806        O810   1.372       .  S
O808        H812   0.992       .  S
O810        H811   0.992       .  S
C813        C814   1.406       .  A
C813        C818   1.415   1_556  A
C814        C815   1.399       .  A
C814        H819   1.083       .  S
C815        C816   1.413   1_556  A
C815        O820   1.372       .  S
C816        C817   1.404       .  A
C817        C818   1.400       .  A
C817        H821   1.083       .  S
C818        O822   1.372       .  S
O820        H824   0.992       .  S
O822        H823   0.992       .  S
C825        C826   1.407       .  A
C825        C830   1.406       .  A
C826        C827   1.408       .  A
C826        H831   1.083       .  S
C827        C828   1.413       .  A
C827        O832   1.371       .  S
C828        C829   1.406       .  A
C829        C830   1.390       .  A
C829        H833   1.083       .  S
C830        O834   1.372       .  S
O832        H836   0.992       .  S
O834        H835   0.992       .  S
C837        C838   1.406       .  A
C837        C842   1.412       .  A
C838        C839   1.396       .  A
C838        H843   1.084       .  S
C839        C840   1.408       .  A
C839        O844   1.372       .  S
C840        C841   1.405       .  A
C841        C842   1.407       .  A
C841        H845   1.084   1_545  S
C842        O846   1.371   1_545  S
O844        H848   0.992       .  S
O846        H847   0.991       .  S
C849        C850   1.405       .  A
C849        C854   1.412       .  A
C850        C851   1.397       .  A
C850        H855   1.083       .  S
C851        C852   1.413       .  A
C851        O856   1.372       .  S
C852        C853   1.406       .  A
C853        C854   1.401       .  A
C853        H857   1.083       .  S
C854        O858   1.371       .  S
O856        H860   0.992       .  S
O858        H859   0.992       .  S
C861        C862   1.405       .  A
C861        C866   1.406       .  A
C862        C863   1.403       .  A
C862        H867   1.084       .  S
C863        C864   1.412       .  A
C863        O868   1.371       .  S
C864        C865   1.409       .  A
C865        C866   1.397       .  A
C865        H869   1.083       .  S
C866        O870   1.372       .  S
O868        H872   0.992       .  S
O870        H871   0.992       .  S
C873        C874   1.405       .  A
C873        C878   1.410       .  A
C874        C875   1.398       .  A
C874        H879   1.084       .  S
C875        C876   1.413       .  A
C875        O880   1.373       .  S
C876        C877   1.407       .  A
C877        C878   1.401       .  A
C877        H881   1.083       .  S
C878        O882   1.372       .  S
O880        H884   0.993       .  S
O882        H883   0.992       .  S
C885        C886   1.404   1_655  A
C885        C890   1.411       .  A
C886        C887   1.396       .  A
C886        H891   1.084       .  S
C887        C888   1.412   1_455  A
C887        O892   1.372       .  S
C888        C889   1.405       .  A
C889        C890   1.397       .  A
C889        H893   1.084       .  S
C890        O894   1.372       .  S
O892        H896   0.992       .  S
O894        H895   0.992       .  S
C897        C898   1.404       .  A
C897        C902   1.412       .  A
C898        C899   1.394       .  A
C898        H903   1.084       .  S
C899        C900   1.408       .  A
C899        O904   1.372       .  S
C900        C901   1.406       .  A
C901        C902   1.408       .  A
C901        H905   1.084       .  S
C902        O906   1.371       .  S
O904        H908   0.992       .  S
O906        H907   0.991       .  S
C909        C910   1.407       .  A
C909        C914   1.414       .  A
C910        C911   1.400       .  A
C910        H915   1.083       .  S
C911        C912   1.411       .  A
C911        O916   1.372       .  S
C912        C913   1.405       .  A
C913        C914   1.399       .  A
C913        H917   1.084       .  S
C914        O918   1.371       .  S
O916        H920   0.992       .  S
O918        H919   0.992       .  S
C921        C922   1.406       .  A
C921        C926   1.413       .  A
C922        C923   1.401       .  A
C922        H927   1.084       .  S
C923        C924   1.414       .  A
C923        O928   1.372       .  S
C924        C925   1.406       .  A
C925        C926   1.401       .  A
C925        H929   1.083       .  S
C926        O930   1.372       .  S
O928        H932   0.991       .  S
O930        H931   0.992       .  S
C933        C934   1.408       .  A
C933        C938   1.416       .  A
C934        C935   1.405       .  A
C934        H939   1.083       .  S
C935        C936   1.410       .  A
C935        O940   1.371       .  S
C936        C937   1.400       .  A
C937        C938   1.388       .  A
C937        H941   1.084       .  S
C938        O942   1.373       .  S
O940        H944   0.992       .  S
O942        H943   0.992       .  S
C945        C946   1.404       .  A
C945        C950   1.408       .  A
C946        C947   1.400       .  A
C946        H951   1.084       .  S
C947        C948   1.415       .  A
C947        O952   1.372       .  S
C948        C949   1.407       .  A
C949        C950   1.399       .  A
C949        H953   1.083       .  S
C950        O954   1.372       .  S
O952        H956   0.992       .  S
O954        H955   0.992       .  S
C957        C958   1.405       .  A
C957        C962   1.407       .  A
C958        C959   1.404       .  A
C958        H963   1.084       .  S
C959        C960   1.412       .  A
C959        O964   1.371       .  S
C960        C961   1.407       .  A
C961        C962   1.388       .  A
C961        H965   1.083       .  S
C962        O966   1.373       .  S
O964        H968   0.992       .  S
O966        H967   0.992       .  S
C969        C970   1.405       .  A
C969        C974   1.411       .  A
C970        C971   1.399       .  A
C970        H975   1.084       .  S
C971        C972   1.412       .  A
C971        O976   1.373       .  S
C972        C973   1.405       .  A
C973        C974   1.398       .  A
C973        H977   1.084       .  S
C974        O978   1.373       .  S
O976        H980   0.992       .  S
O978        H979   0.992       .  S
C981        C982   1.405       .  A
C981        C986   1.412       .  A
C982        C983   1.397       .  A
C982        H987   1.084       .  S
C983        C984   1.411       .  A
C983        O988   1.372       .  S
C984        C985   1.405       .  A
C985        C986   1.407       .  A
C985        H989   1.084   1_545  S
C986        O990   1.371   1_545  S
O988        H992   0.992       .  S
O990        H991   0.992       .  S
C993        C994   1.408       .  A
C993        C998   1.413       .  A
C994        C995   1.402       .  A
C994        H999   1.083       .  S
C995        C996   1.411       .  A
C995       O1000   1.372       .  S
C996        C997   1.406       .  A
C997        C998   1.402       .  A
C997       H1001   1.083       .  S
C998       O1002   1.372       .  S
O1000      H1004   0.992       .  S
O1002      H1003   0.992       .  S
C1005      C1006   1.407       .  A
C1005      C1010   1.409       .  A
C1006      C1007   1.398       .  A
C1006      H1011   1.084       .  S
C1007      C1008   1.410       .  A
C1007      O1012   1.372       .  S
C1008      C1009   1.407       .  A
C1009      C1010   1.396       .  A
C1009      H1013   1.084       .  S
C1010      O1014   1.372       .  S
O1012      H1016   0.992       .  S
O1014      H1015   0.992       .  S
C1017      C1018   1.406       .  A
C1017      C1022   1.412       .  A
C1018      C1019   1.401       .  A
C1018      H1023   1.083       .  S
C1019      C1020   1.413       .  A
C1019      O1024   1.372       .  S
C1020      C1021   1.408       .  A
C1021      C1022   1.404       .  A
C1021      H1025   1.083       .  S
C1022      O1026   1.372       .  S
O1024      H1028   0.992       .  S
O1026      H1027   0.992       .  S
C1029      C1030   1.407       .  A
C1029      C1034   1.416       .  A
C1030      C1031   1.401       .  A
C1030      H1035   1.083       .  S
C1031      C1032   1.412       .  A
C1031      O1036   1.372       .  S
C1032      C1033   1.404       .  A
C1033      C1034   1.401       .  A
C1033      H1037   1.084       .  S
C1034      O1038   1.371       .  S
O1036      H1040   0.992       .  S
O1038      H1039   0.992       .  S
C1041      C1042   1.409       .  A
C1041      C1046   1.409   1_554  A
C1042      C1043   1.400       .  A
C1042      H1047   1.084       .  S
C1043      C1044   1.410   1_554  A
C1043      O1048   1.372       .  S
C1044      C1045   1.408       .  A
C1045      C1046   1.396       .  A
C1045      H1049   1.083       .  S
C1046      O1050   1.372       .  S
O1048      H1052   0.992       .  S
O1050      H1051   0.992       .  S
C1053      C1054   1.400       .  A
C1053      C1058   1.408       .  A
C1054      C1055   1.400       .  A
C1054      H1059   1.084       .  S
C1055      C1056   1.411       .  A
C1055      O1060   1.372       .  S
C1056      C1057   1.404       .  A
C1057      C1058   1.402       .  A
C1057      H1061   1.084       .  S
C1058      O1062   1.372       .  S
O1060      H1064   0.992       .  S
O1062      H1063   0.992       .  S
C1065      C1066   1.404       .  A
C1065      C1070   1.410   1_554  A
C1066      C1067   1.400       .  A
C1066      H1071   1.084       .  S
C1067      C1068   1.415   1_554  A
C1067      O1072   1.371       .  S
C1068      C1069   1.409       .  A
C1069      C1070   1.402       .  A
C1069      H1073   1.083       .  S
C1070      O1074   1.372       .  S
O1072      H1076   0.992   1_554  S
O1074      H1075   0.992       .  S
C1077      C1078   1.406       .  A
C1077      C1082   1.411       .  A
C1078      C1079   1.399       .  A
C1078      H1083   1.084       .  S
C1079      C1080   1.413       .  A
C1079      O1084   1.372       .  S
C1080      C1081   1.408       .  A
C1081      C1082   1.403       .  A
C1081      H1085   1.083       .  S
C1082      O1086   1.371       .  S
O1084      H1088   0.992       .  S
O1086      H1087   0.992       .  S
C1089      C1090   1.408       .  A
C1089      C1094   1.414       .  A
C1090      C1091   1.400       .  A
C1090      H1095   1.083       .  S
C1091      C1092   1.410   1_554  A
C1091      O1096   1.372       .  S
C1092      C1093   1.403       .  A
C1093      C1094   1.400   1_556  A
C1093      H1097   1.084       .  S
C1094      O1098   1.371       .  S
O1096      H1100   0.992       .  S
O1098      H1099   0.992       .  S
C1101      C1102   1.405       .  A
C1101      C1106   1.413       .  A
C1102      C1103   1.402       .  A
C1102      H1107   1.084       .  S
C1103      C1104   1.414       .  A
C1103      O1108   1.371       .  S
C1104      C1105   1.406       .  A
C1105      C1106   1.401       .  A
C1105      H1109   1.083       .  S
C1106      O1110   1.372       .  S
O1108      H1112   0.986       .  S
O1110      H1111   0.991       .  S
C1113      C1114   1.403       .  A
C1113      C1118   1.412       .  A
C1114      C1115   1.395       .  A
C1114      H1119   1.084       .  S
C1115      C1116   1.412       .  A
C1115      O1120   1.372       .  S
C1116      C1117   1.407       .  A
C1117      C1118   1.410       .  A
C1117      H1121   1.083       .  S
C1118      O1122   1.371       .  S
O1120      H1124   0.992       .  S
O1122      H1123   0.992       .  S
C1125      C1126   1.404       .  A
C1125      C1130   1.411       .  A
C1126      C1127   1.399       .  A
C1126      H1131   1.084       .  S
C1127      C1128   1.415       .  A
C1127      O1132   1.371       .  S
C1128      C1129   1.408       .  A
C1129      C1130   1.401       .  A
C1129      H1133   1.083       .  S
C1130      O1134   1.372       .  S
O1132      H1136   0.992       .  S
O1134      H1135   0.992       .  S
C1137      C1138   1.406       .  A
C1137      C1142   1.413       .  A
C1138      C1139   1.400       .  A
C1138      H1143   1.083       .  S
C1139      C1140   1.414       .  A
C1139      O1144   1.371       .  S
C1140      C1141   1.407       .  A
C1141      C1142   1.402       .  A
C1141      H1145   1.083       .  S
C1142      O1146   1.371       .  S
O1144      H1148   0.991       .  S
O1146      H1147   0.992       .  S
C1149      C1150   1.405       .  A
C1149      C1154   1.412       .  A
C1150      C1151   1.388       .  A
C1150      H1155   1.083       .  S
C1151      C1152   1.407       .  A
C1151      O1156   1.374       .  S
C1152      C1153   1.406       .  A
C1153      C1154   1.404       .  A
C1153      H1157   1.083       .  S
C1154      O1158   1.371       .  S
O1156      H1160   0.992       .  S
O1158      H1159   0.992       .  S
C1161      C1162   1.409       .  A
C1161      C1166   1.414       .  A
C1162      C1163   1.404       .  A
C1162      H1167   1.083       .  S
C1163      C1164   1.411       .  A
C1163      O1168   1.371       .  S
C1164      C1165   1.404       .  A
C1165      C1166   1.399       .  A
C1165      H1169   1.084       .  S
C1166      O1170   1.372       .  S
O1168      H1172   0.992       .  S
O1170      H1171   0.992       .  S
C1173      C1174   1.406       .  A
C1173      C1178   1.407       .  A
C1174      C1175   1.404       .  A
C1174      H1179   1.083       .  S
C1175      C1176   1.412       .  A
C1175      O1180   1.371       .  S
C1176      C1177   1.406       .  A
C1177      C1178   1.387       .  A
C1177      H1181   1.083       .  S
C1178      O1182   1.373       .  S
O1180      H1184   0.992       .  S
O1182      H1183   0.992       .  S
C1185      C1186   1.404       .  A
C1185      C1190   1.411       .  A
C1186      C1187   1.398       .  A
C1186      H1191   1.084       .  S
C1187      C1188   1.413       .  A
C1187      O1192   1.373       .  S
C1188      C1189   1.403       .  A
C1189      C1190   1.396       .  A
C1189      H1193   1.084       .  S
C1190      O1194   1.373       .  S
O1192      H1196   0.992       .  S
O1194      H1195   0.992       .  S
C1197      C1198   1.403       .  A
C1197      C1202   1.404       .  A
C1198      C1199   1.403       .  A
C1198      H1203   1.084       .  S
C1199      C1200   1.409       .  A
C1199      O1204   1.371       .  S
C1200      C1201   1.408       .  A
C1201      C1202   1.401       .  A
C1201      H1205   1.084       .  S
C1202      O1206   1.372       .  S
O1204      H1208   0.992   1_565  S
O1206      H1207   0.992       .  S
C1209      C1210   1.407       .  A
C1209      C1214   1.415       .  A
C1210      C1211   1.399       .  A
C1210      H1215   1.083       .  S
C1211      C1212   1.411       .  A
C1211      O1216   1.372       .  S
C1212      C1213   1.404       .  A
C1213      C1214   1.399       .  A
C1213      H1217   1.084       .  S
C1214      O1218   1.372       .  S
O1216      H1220   0.992       .  S
O1218      H1219   0.992       .  S
C1221      C1222   1.406       .  A
C1221      C1226   1.409       .  A
C1222      C1223   1.401       .  A
C1222      H1227   1.084       .  S
C1223      C1224   1.410       .  A
C1223      O1228   1.372       .  S
C1224      C1225   1.404       .  A
C1225      C1226   1.399       .  A
C1225      H1229   1.084       .  S
C1226      O1230   1.372       .  S
O1228      H1232   0.992       .  S
O1230      H1231   0.992       .  S
C1233      C1234   1.407       .  A
C1233      C1238   1.415       .  A
C1234      C1235   1.401       .  A
C1234      H1239   1.083       .  S
C1235      C1236   1.412       .  A
C1235      O1240   1.372       .  S
C1236      C1237   1.404       .  A
C1237      C1238   1.398       .  A
C1237      H1241   1.084       .  S
C1238      O1242   1.371       .  S
O1240      H1244   0.992       .  S
O1242      H1243   0.992       .  S
C1245      C1246   1.408       .  A
C1245      C1250   1.412       .  A
C1246      C1247   1.398       .  A
C1246      H1251   1.083       .  S
C1247      C1248   1.409       .  A
C1247      O1252   1.372       .  S
C1248      C1249   1.405       .  A
C1249      C1250   1.403       .  A
C1249      H1253   1.084       .  S
C1250      O1254   1.372       .  S
O1252      H1256   0.991       .  S
O1254      H1255   0.991       .  S
C1257      C1258   1.400       .  A
C1257      C1262   1.408       .  A
C1258      C1259   1.401       .  A
C1258      H1263   1.084       .  S
C1259      C1260   1.410       .  A
C1259      O1264   1.372       .  S
C1260      C1261   1.402       .  A
C1261      C1262   1.400       .  A
C1261      H1265   1.084       .  S
C1262      O1266   1.372       .  S
O1264      H1268   0.992       .  S
O1266      H1267   0.992       .  S
C1269      C1270   1.404       .  A
C1269      C1274   1.413       .  A
C1270      C1271   1.398       .  A
C1270      H1275   1.083       .  S
C1271      C1272   1.415       .  A
C1271      O1276   1.372       .  S
C1272      C1273   1.406       .  A
C1273      C1274   1.404       .  A
C1273      H1277   1.083       .  S
C1274      O1278   1.371       .  S
O1276      H1280   0.992       .  S
O1278      H1279   0.992       .  S
C1281      C1282   1.409       .  A
C1281      C1286   1.411       .  A
C1282      C1283   1.400       .  A
C1282      H1287   1.083       .  S
C1283      C1284   1.410       .  A
C1283      O1288   1.372       .  S
C1284      C1285   1.407       .  A
C1285      C1286   1.401       .  A
C1285      H1289   1.084       .  S
C1286      O1290   1.372       .  S
O1288      H1292   0.992       .  S
O1290      H1291   0.992       .  S
C1293      C1294   1.407       .  A
C1293      C1298   1.412       .  A
C1294      C1295   1.389       .  A
C1294      H1299   1.083       .  S
C1295      C1296   1.408       .  A
C1295      O1300   1.373       .  S
C1296      C1297   1.406       .  A
C1297      C1298   1.405       .  A
C1297      H1301   1.083       .  S
C1298      O1302   1.371       .  S
O1300      H1304   0.992       .  S
O1302      H1303   0.992       .  S
C1305      C1306   1.403       .  A
C1305      C1310   1.410   1_655  A
C1306      C1307   1.395       .  A
C1306      H1311   1.084       .  S
C1307      C1308   1.410       .  A
C1307      O1312   1.372       .  S
C1308      C1309   1.403   1_655  A
C1309      C1310   1.396       .  A
C1309      H1313   1.084       .  S
C1310      O1314   1.372       .  S
O1312      H1316   0.992       .  S
O1314      H1315   0.992       .  S
C1317      C1318   1.405       .  A
C1317      C1322   1.410       .  A
C1318      C1319   1.404       .  A
C1318      H1323   1.084       .  S
C1319      C1320   1.416       .  A
C1319      O1324   1.372       .  S
C1320      C1321   1.408       .  A
C1321      C1322   1.401       .  A
C1321      H1325   1.083       .  S
C1322      O1326   1.371       .  S
O1324      H1328   0.992       .  S
O1326      H1327   0.992       .  S
C1329      C1330   1.406       .  A
C1329      C1334   1.411       .  A
C1330      C1331   1.388       .  A
C1330      H1335   1.083       .  S
C1331      C1332   1.405       .  A
C1331      O1336   1.372       .  S
C1332      C1333   1.407       .  A
C1333      C1334   1.405       .  A
C1333      H1337   1.083       .  S
C1334      O1338   1.371       .  S
O1336      H1340   0.992       .  S
O1338      H1339   0.992   1_554  S
C1341      C1342   1.402   1_554  A
C1341      C1346   1.413       .  A
C1342      C1343   1.398       .  A
C1342      H1347   1.084       .  S
C1343      C1344   1.412       .  A
C1343      O1348   1.372       .  S
C1344      C1345   1.403   1_556  A
C1345      C1346   1.397       .  A
C1345      H1349   1.084       .  S
C1346      O1350   1.373       .  S
O1348      H1352   0.992       .  S
O1350      H1351   0.992       .  S
C1353      C1354   1.404       .  A
C1353      C1358   1.410       .  A
C1354      C1355   1.394       .  A
C1354      H1359   1.084       .  S
C1355      C1356   1.409       .  A
C1355      O1360   1.372       .  S
C1356      C1357   1.407       .  A
C1357      C1358   1.406       .  A
C1357      H1361   1.084   1_565  S
C1358      O1362   1.371   1_565  S
O1360      H1364   0.992       .  S
O1362      H1363   0.992       .  S
C1365      C1366   1.405       .  A
C1365      C1370   1.411   1_556  A
C1366      C1367   1.402   1_556  A
C1366      H1371   1.084       .  S
C1367      C1368   1.415       .  A
C1367      O1372   1.372   1_554  S
C1368      C1369   1.407       .  A
C1369      C1370   1.401       .  A
C1369      H1373   1.083       .  S
C1370      O1374   1.372       .  S
O1372      H1376   0.992       .  S
O1374      H1375   0.992       .  S
C1377      C1378   1.405       .  A
C1377      C1382   1.407       .  A
C1378      C1379   1.406       .  A
C1378      H1383   1.084       .  S
C1379      C1380   1.413       .  A
C1379      O1384   1.371       .  S
C1380      C1381   1.407       .  A
C1381      C1382   1.391       .  A
C1381      H1385   1.083       .  S
C1382      O1386   1.372       .  S
O1384      H1388   0.992       .  S
O1386      H1387   0.992       .  S
C1389      C1390   1.408       .  A
C1389      C1394   1.412       .  A
C1390      C1391   1.402       .  A
C1390      H1395   1.083       .  S
C1391      C1392   1.413       .  A
C1391      O1396   1.372       .  S
C1392      C1393   1.405       .  A
C1393      C1394   1.398       .  A
C1393      H1397   1.083   1_565  S
C1394      O1398   1.371       .  S
O1396      H1400   0.992       .  S
O1398      H1399   0.992       .  S
C1401      C1402   1.404       .  A
C1401      C1406   1.410       .  A
C1402      C1403   1.401       .  A
C1402      H1407   1.084       .  S
C1403      C1404   1.415       .  A
C1403      O1408   1.372       .  S
C1404      C1405   1.407       .  A
C1405      C1406   1.401       .  A
C1405      H1409   1.083       .  S
C1406      O1410   1.372       .  S
O1408      H1412   0.992       .  S
O1410      H1411   0.992       .  S
C1413      C1414   1.406       .  A
C1413      C1418   1.413       .  A
C1414      C1415   1.400       .  A
C1414      H1419   1.083       .  S
C1415      C1416   1.411       .  A
C1415      O1420   1.371       .  S
C1416      C1417   1.408       .  A
C1417      C1418   1.402       .  A
C1417      H1421   1.084       .  S
C1418      O1422   1.372       .  S
O1420      H1424   0.991       .  S
O1422      H1423   0.992       .  S
C1425      C1426   1.407       .  A
C1425      C1430   1.410       .  A
C1426      C1427   1.389       .  A
C1426      H1431   1.084       .  S
C1427      C1428   1.405       .  A
C1427      O1432   1.373       .  S
C1428      C1429   1.407       .  A
C1429      C1430   1.406       .  A
C1429      H1433   1.084       .  S
C1430      O1434   1.371       .  S
O1432      H1436   0.992       .  S
O1434      H1435   0.992       .  S
C1437      C1438   1.402       .  A
C1437      C1442   1.409       .  A
C1438      C1439   1.395       .  A
C1438      H1443   1.084       .  S
C1439      C1440   1.414       .  A
C1439      O1444   1.372       .  S
C1440      C1441   1.408       .  A
C1441      C1442   1.406       .  A
C1441      H1445   1.083       .  S
C1442      O1446   1.371       .  S
O1444      H1448   0.992       .  S
O1446      H1447   0.992       .  S
C1449      C1450   1.409       .  A
C1449      C1454   1.414       .  A
C1450      C1451   1.399       .  A
C1450      H1455   1.083       .  S
C1451      C1452   1.409       .  A
C1451      O1456   1.372   1_565  S
C1452      C1453   1.404       .  A
C1453      C1454   1.400       .  A
C1453      H1457   1.084       .  S
C1454      O1458   1.371       .  S
O1456      H1460   0.992       .  S
O1458      H1459   0.992       .  S
C1461      C1462   1.403       .  A
C1461      C1466   1.414       .  A
C1462      C1463   1.400       .  A
C1462      H1467   1.084       .  S
C1463      C1464   1.416       .  A
C1463      O1468   1.371       .  S
C1464      C1465   1.406       .  A
C1465      C1466   1.401       .  A
C1465      H1469   1.083       .  S
C1466      O1470   1.372       .  S
O1468      H1472   0.992       .  S
O1470      H1471   0.992       .  S
C1473      C1474   1.405       .  A
C1473      C1478   1.414       .  A
C1474      C1475   1.402       .  A
C1474      H1479   1.083       .  S
C1475      C1476   1.412       .  A
C1475      O1480   1.372       .  S
C1476      C1477   1.403       .  A
C1477      C1478   1.397       .  A
C1477      H1481   1.084       .  S
C1478      O1482   1.373       .  S
O1480      H1484   0.992       .  S
O1482      H1483   0.993       .  S
C1485      C1486   1.406       .  A
C1485      C1490   1.411       .  A
C1486      C1487   1.392       .  A
C1486      H1491   1.084       .  S
C1487      C1488   1.404       .  A
C1487      O1492   1.372       .  S
C1488      C1489   1.405       .  A
C1489      C1490   1.405       .  A
C1489      H1493   1.084       .  S
C1490      O1494   1.371       .  S
O1492      H1496   0.992       .  S
O1494      H1495   0.992       .  S
C1497      C1498   1.405       .  A
C1497      C1502   1.414   1_556  A
C1498      C1499   1.400       .  A
C1498      H1503   1.083       .  S
C1499      C1500   1.415   1_556  A
C1499      O1504   1.372       .  S
C1500      C1501   1.406       .  A
C1501      C1502   1.402       .  A
C1501      H1505   1.083       .  S
C1502      O1506   1.371       .  S
O1504      H1508   0.992       .  S
O1506      H1507   0.992       .  S
C1509      C1510   1.405       .  A
C1509      C1514   1.413       .  A
C1510      C1511   1.401       .  A
C1510      H1515   1.083       .  S
C1511      C1512   1.413       .  A
C1511      O1516   1.372       .  S
C1512      C1513   1.406       .  A
C1513      C1514   1.401       .  A
C1513      H1517   1.084       .  S
C1514      O1518   1.372       .  S
O1516      H1520   0.992       .  S
O1518      H1519   0.992       .  S
C1521      C1522   1.401   1_554  A
C1521      C1526   1.410       .  A
C1522      C1523   1.400       .  A
C1522      H1527   1.084   1_545  S
C1523      C1524   1.417       .  A
C1523      O1528   1.372       .  S
C1524      C1525   1.407       .  A
C1525      C1526   1.401   1_556  A
C1525      H1529   1.083       .  S
C1526      O1530   1.372       .  S
O1528      H1532   0.992       .  S
O1530      H1531   0.992       .  S
C1533      C1534   1.408       .  A
C1533      C1538   1.407       .  A
C1534      C1535   1.408       .  A
C1534      H1539   1.083       .  S
C1535      C1536   1.413       .  A
C1535      O1540   1.371       .  S
C1536      C1537   1.406       .  A
C1537      C1538   1.388       .  A
C1537      H1541   1.083       .  S
C1538      O1542   1.372       .  S
O1540      H1544   0.992       .  S
O1542      H1543   0.992       .  S
C1545      C1546   1.404       .  A
C1545      C1550   1.408       .  A
C1546      C1547   1.396   1_565  A
C1546      H1551   1.084       .  S
C1547      C1548   1.407       .  A
C1547      O1552   1.372       .  S
C1548      C1549   1.405       .  A
C1549      C1550   1.398   1_545  A
C1549      H1553   1.084       .  S
C1550      O1554   1.373       .  S
O1552      H1556   0.992       .  S
O1554      H1555   0.992       .  S
C1557      C1558   1.404       .  A
C1557      C1562   1.412       .  A
C1558      C1559   1.395       .  A
C1558      H1563   1.084       .  S
C1559      C1560   1.411       .  A
C1559      O1564   1.372       .  S
C1560      C1561   1.405       .  A
C1561      C1562   1.406       .  A
C1561      H1565   1.083       .  S
C1562      O1566   1.371       .  S
O1564      H1568   0.992       .  S
O1566      H1567   0.992       .  S
C1569      C1570   1.403       .  A
C1569      C1574   1.408       .  A
C1570      C1571   1.398       .  A
C1570      H1575   1.084       .  S
C1571      C1572   1.414       .  A
C1571      O1576   1.371       .  S
C1572      C1573   1.409       .  A
C1573      C1574   1.399       .  A
C1573      H1577   1.083       .  S
C1574      O1578   1.372       .  S
O1576      H1580   0.992       .  S
O1578      H1579   0.992       .  S
C1581      C1582   1.407       .  A
C1581      C1586   1.414       .  A
C1582      C1583   1.400       .  A
C1582      H1587   1.083       .  S
C1583      C1584   1.411       .  A
C1583      O1588   1.371       .  S
C1584      C1585   1.405       .  A
C1585      C1586   1.399       .  A
C1585      H1589   1.084       .  S
C1586      O1590   1.371       .  S
O1588      H1592   0.992       .  S
O1590      H1591   0.991       .  S
C1593      C1594   1.406       .  A
C1593      C1598   1.415       .  A
C1594      C1595   1.398       .  A
C1594      H1599   1.083       .  S
C1595      C1596   1.410       .  A
C1595      O1600   1.372       .  S
C1596      C1597   1.404       .  A
C1597      C1598   1.400       .  A
C1597      H1601   1.084   1_545  S
C1598      O1602   1.372       .  S
O1600      H1604   0.992       .  S
O1602      H1603   0.992       .  S
C1605      C1606   1.407       .  A
C1605      C1610   1.413       .  A
C1606      C1607   1.388       .  A
C1606      H1611   1.083       .  S
C1607      C1608   1.407       .  A
C1607      O1612   1.373       .  S
C1608      C1609   1.407       .  A
C1609      C1610   1.407       .  A
C1609      H1613   1.083       .  S
C1610      O1614   1.371       .  S
O1612      H1616   0.992       .  S
O1614      H1615   0.992       .  S
C1617      C1618   1.407       .  A
C1617      C1622   1.412       .  A
C1618      C1619   1.399       .  A
C1618      H1623   1.083       .  S
C1619      C1620   1.411       .  A
C1619      O1624   1.372       .  S
C1620      C1621   1.408       .  A
C1621      C1622   1.402       .  A
C1621      H1625   1.083   1_565  S
C1622      O1626   1.371       .  S
O1624      H1628   0.992       .  S
O1626      H1627   0.992       .  S
C1629      C1630   1.406       .  A
C1629      C1634   1.411       .  A
C1630      C1631   1.405       .  A
C1630      H1635   1.083       .  S
C1631      C1632   1.416       .  A
C1631      O1636   1.371       .  S
C1632      C1633   1.408       .  A
C1633      C1634   1.402       .  A
C1633      H1637   1.083       .  S
C1634      O1638   1.372       .  S
O1636      H1640   0.992       .  S
O1638      H1639   0.992       .  S
C1641      C1642   1.406       .  A
C1641      C1646   1.410       .  A
C1642      C1643   1.402       .  A
C1642      H1647   1.084       .  S
C1643      C1644   1.413       .  A
C1643      O1648   1.372       .  S
C1644      C1645   1.409       .  A
C1645      C1646   1.401       .  A
C1645      H1649   1.083       .  S
C1646      O1650   1.371       .  S
O1648      H1652   0.992       .  S
O1650      H1651   0.992       .  S
C1653      C1654   1.406       .  A
C1653      C1658   1.404       .  A
C1654      C1655   1.406       .  A
C1654      H1659   1.084       .  S
C1655      C1656   1.411       .  A
C1655      O1660   1.371       .  S
C1656      C1657   1.406       .  A
C1657      C1658   1.389       .  A
C1657      H1661   1.084       .  S
C1658      O1662   1.373       .  S
O1660      H1664   0.992       .  S
O1662      H1663   0.992       .  S
C1665      C1666   1.406       .  A
C1665      C1670   1.410   1_554  A
C1666      C1667   1.397   1_565  A
C1666      H1671   1.083       .  S
C1667      C1668   1.410   1_554  A
C1667      O1672   1.372       .  S
C1668      C1669   1.407       .  A
C1669      C1670   1.397   1_545  A
C1669      H1673   1.083       .  S
C1670      O1674   1.372       .  S
O1672      H1676   0.992       .  S
O1674      H1675   0.992       .  S
C1677      C1678   1.403       .  A
C1677      C1682   1.411       .  A
C1678      C1679   1.404       .  A
C1678      H1683   1.084       .  S
C1679      C1680   1.410       .  A
C1679      O1684   1.372       .  S
C1680      C1681   1.401       .  A
C1681      C1682   1.403       .  A
C1681      H1685   1.084       .  S
C1682      O1686   1.372       .  S
O1684      H1688   0.992       .  S
O1686      H1687   0.992       .  S
C1689      C1690   1.406   1_554  A
C1689      C1694   1.410       .  A
C1690      C1691   1.399       .  A
C1690      H1695   1.083       .  S
C1691      C1692   1.413       .  A
C1691      O1696   1.372       .  S
C1692      C1693   1.408   1_556  A
C1693      C1694   1.400       .  A
C1693      H1697   1.083   1_565  S
C1694      O1698   1.371       .  S
O1696      H1700   0.992       .  S
O1698      H1699   0.992       .  S
C1701      C1702   1.406   1_556  A
C1701      C1706   1.413       .  A
C1702      C1703   1.400       .  A
C1702      H1707   1.083       .  S
C1703      C1704   1.413       .  A
C1703      O1708   1.372       .  S
C1704      C1705   1.405   1_554  A
C1705      C1706   1.400       .  A
C1705      H1709   1.083       .  S
C1706      O1710   1.371       .  S
O1708      H1712   0.992       .  S
O1710      H1711   0.992       .  S
C1713      C1714   1.407       .  A
C1713      C1718   1.412       .  A
C1714      C1715   1.401       .  A
C1714      H1719   1.083       .  S
C1715      C1716   1.413       .  A
C1715      O1720   1.371       .  S
C1716      C1717   1.407       .  A
C1717      C1718   1.402       .  A
C1717      H1721   1.083       .  S
C1718      O1722   1.372       .  S
O1720      H1724   0.992       .  S
O1722      H1723   0.991       .  S
C1725      C1726   1.407       .  A
C1725      C1730   1.412       .  A
C1726      C1727   1.406       .  A
C1726      H1731   1.083       .  S
C1727      C1728   1.412       .  A
C1727      O1732   1.371       .  S
C1728      C1729   1.405       .  A
C1729      C1730   1.389       .  A
C1729      H1733   1.083       .  S
C1730      O1734   1.373       .  S
O1732      H1736   0.992       .  S
O1734      H1735   0.992       .  S
C1737      C1738   1.404       .  A
C1737      C1742   1.413       .  A
C1738      C1739   1.399   1_545  A
C1738      H1743   1.084       .  S
C1739      C1740   1.413       .  A
C1739      O1744   1.372       .  S
C1740      C1741   1.402       .  A
C1741      C1742   1.395   1_565  A
C1741      H1745   1.084       .  S
C1742      O1746   1.372       .  S
O1744      H1748   0.992       .  S
O1746      H1747   0.992       .  S
C1749      C1750   1.406       .  A
C1749      C1754   1.412       .  A
C1750      C1751   1.401       .  A
C1750      H1755   1.083       .  S
C1751      C1752   1.413       .  A
C1751      O1756   1.371       .  S
C1752      C1753   1.407       .  A
C1753      C1754   1.400       .  A
C1753      H1757   1.083       .  S
C1754      O1758   1.372       .  S
O1756      H1760   0.992       .  S
O1758      H1759   0.992       .  S
C1761      C1762   1.405       .  A
C1761      C1766   1.412       .  A
C1762      C1763   1.401       .  A
C1762      H1767   1.083       .  S
C1763      C1764   1.414       .  A
C1763      O1768   1.372       .  S
C1764      C1765   1.406       .  A
C1765      C1766   1.400       .  A
C1765      H1769   1.083       .  S
C1766      O1770   1.372       .  S
O1768      H1772   0.992       .  S
O1770      H1771   0.992       .  S
C1773      C1774   1.407       .  A
C1773      C1778   1.415       .  A
C1774      C1775   1.398       .  A
C1774      H1779   1.083       .  S
C1775      C1776   1.410       .  A
C1775      O1780   1.372   1_545  S
C1776      C1777   1.404       .  A
C1777      C1778   1.402       .  A
C1777      H1781   1.084       .  S
C1778      O1782   1.371       .  S
O1780      H1784   0.992       .  S
O1782      H1783   0.992       .  S
C1785      C1786   1.407       .  A
C1785      C1790   1.411       .  A
C1786      C1787   1.393       .  A
C1786      H1791   1.084       .  S
C1787      C1788   1.405       .  A
C1787      O1792   1.373       .  S
C1788      C1789   1.405       .  A
C1789      C1790   1.406       .  A
C1789      H1793   1.084       .  S
C1790      O1794   1.371       .  S
O1792      H1796   0.992       .  S
O1794      H1795   0.992       .  S
C1797      C1798   1.406   1_455  A
C1797      C1802   1.409       .  A
C1798      C1799   1.396   1_565  A
C1798      H1803   1.084       .  S
C1799      C1800   1.409       .  A
C1799      O1804   1.372       .  S
C1800      C1801   1.406   1_655  A
C1801      C1802   1.398   1_545  A
C1801      H1805   1.083       .  S
C1802      O1806   1.372       .  S
O1804      H1808   0.992       .  S
O1806      H1807   0.992       .  S
C1809      C1810   1.404       .  A
C1809      C1814   1.410       .  A
C1810      C1811   1.394       .  A
C1810      H1815   1.084       .  S
C1811      C1812   1.410       .  A
C1811      O1816   1.372       .  S
C1812      C1813   1.407       .  A
C1813      C1814   1.406       .  A
C1813      H1817   1.083       .  S
C1814      O1818   1.371       .  S
O1816      H1820   0.992       .  S
O1818      H1819   0.992       .  S
C1821      C1822   1.403       .  A
C1821      C1826   1.413       .  A
C1822      C1823   1.398       .  A
C1822      H1827   1.083       .  S
C1823      C1824   1.415       .  A
C1823      O1828   1.372       .  S
C1824      C1825   1.408       .  A
C1825      C1826   1.404       .  A
C1825      H1829   1.083       .  S
C1826      O1830   1.372       .  S
O1828      H1832   0.991       .  S
O1830      H1831   0.992       .  S
C1833      C1834   1.406       .  A
C1833      C1838   1.412       .  A
C1834      C1835   1.400       .  A
C1834      H1839   1.084       .  S
C1835      C1836   1.413       .  A
C1835      O1840   1.371       .  S
C1836      C1837   1.407       .  A
C1837      C1838   1.401       .  A
C1837      H1841   1.083       .  S
C1838      O1842   1.372       .  S
O1840      H1844   0.992       .  S
O1842      H1843   0.992       .  S
C1845      C1846   1.407       .  A
C1845      C1850   1.415       .  A
C1846      C1847   1.402       .  A
C1846      H1851   1.083       .  S
C1847      C1848   1.414       .  A
C1847      O1852   1.372       .  S
C1848      C1849   1.405       .  A
C1849      C1850   1.402       .  A
C1849      H1853   1.083   1_545  S
C1850      O1854   1.371       .  S
O1852      H1856   0.992       .  S
O1854      H1855   0.992       .  S
