geometry optimzed in LAMMPS
_audit_creation_date              2020-12-01 
_audit_creation_method            'lammps2cif' 
_symmetry_space_group_name_H-M    'P1' 
_symmetry_Int_Tables_number       1 
_symmetry_cell_setting            triclinic 
loop_ 
_symmetry_equiv_pos_as_xyz 
  x,y,z 
_cell_length_a                    93.41255678 
_cell_length_b                    37.80811934815304 
_cell_length_c                    45.548174164805125 
_cell_angle_alpha                 89.79920771797036 
_cell_angle_beta                  90.23429276352039 
_cell_angle_gamma                 89.9280650751273 
loop_ 
_atom_site_label 
_atom_site_type_symbol 
_atom_site_fract_x 
_atom_site_fract_y 
_atom_site_fract_z 
_atom_site_charge 
Fe1        Fe  0.79949415  0.77130813  0.71523514     1.65800
Fe2        Fe  0.79644481  0.85742525  0.70121917     1.73200
Fe3        Fe  0.76847308  0.80420890  0.68829329     1.54400
O4          O  0.77288061  0.75424311  0.67065566    -0.81800
O5          O  0.78057385  0.87371778  0.72799867    -0.80100
O6          O  0.79634475  0.74486411  0.67681049    -0.84300
O7          O  0.78186442  0.74577831  0.73441682    -0.79100
O8          O  0.77259317  0.82711305  0.64827712    -0.80900
O9          O  0.80858714  0.84879977  0.73935409    -0.83700
C10         C  0.76907529  0.75518560  0.74051112     0.97100
C11         C  0.78421209  0.73602400  0.66660577     1.04500
O12         O  0.78820040  0.81071336  0.70096918    -1.12600
O13         O  0.81306947  0.84213106  0.67507102    -0.75100
O14         O  0.81883028  0.79261983  0.69885538    -0.78600
O15         O  0.76309674  0.78134704  0.72785372    -0.79200
C16         C  0.82221028  0.81892730  0.68251919     0.96000
O17         O  0.80258639  0.79525322  0.75475614    -0.77200
O18         O  0.78482685  0.87378503  0.66388382    -0.82400
C19         C  0.76762718  0.87668389  0.72040117     0.98600
C20         C  0.77660728  0.85898936  0.64513027     1.04600
O21         O  0.76162676  0.85381284  0.70393353    -0.78000
C22         C  0.80737207  0.82589101  0.75978127     1.02900
Fe23       Fe  0.94344353  0.96298692  0.71757560     1.65800
Fe24       Fe  0.94919532  0.87743091  0.70555450     1.73200
Fe25       Fe  0.97554836  0.93545997  0.69240194     1.54400
O26         O  0.96937529  0.98304764  0.67202455    -0.81800
O27         O  0.96501198  0.86401059  0.73341842    -0.80100
O28         O  0.94578673  0.98853646  0.67828554    -0.84300
O29         O  0.96004787  0.99324612  0.73647923    -0.79100
O30         O  0.97281742  0.90913945  0.65310909    -0.80900
O31         O  0.93645061  0.88502052  0.74300872    -0.83700
C32         C  0.97318855  0.98715072  0.74262450     0.97100
C33         C  0.95750980  0.99904781  0.66723920     1.04500
O34         O  0.95610040  0.92550672  0.70477156    -1.12600
O35         O  0.93285761  0.88993711  0.67788176    -0.75100
O36         O  0.92479130  0.93688529  0.70166444    -0.78600
O37         O  0.97999607  0.96197411  0.73071690    -0.79200
C38         C  0.92261740  0.90972184  0.68549836     0.96000
O39         O  0.94124145  0.93958993  0.75762766    -0.77200
O40         O  0.96145896  0.86146380  0.66927788    -0.82400
C41         C  0.97832060  0.86634444  0.72934092     0.98600
C42         C  0.96933406  0.87684052  0.65031293     1.04600
O43         O  0.98380647  0.88914287  0.71195190    -0.78000
C44         C  0.93722222  0.90834135  0.76311309     1.02900
Fe45       Fe  0.79995579  0.96451483  0.01163882     1.65800
Fe46       Fe  0.79565046  0.87886714  0.02905998     1.73200
Fe47       Fe  0.76830711  0.93655265  0.03935347     1.54400
O48         O  0.77446671  0.98405165  0.05940913    -0.81800
O49         O  0.77920707  0.86004954  0.00466950    -0.80100
O50         O  0.79768689  0.99249082  0.04992529    -0.84300
O51         O  0.78312240  0.99316041  0.99230643    -0.79100
O52         O  0.77087488  0.91092156  0.07913702    -0.80900
O53         O  0.80695529  0.88432309  0.98947166    -0.83700
C54         C  0.76990456  0.98730881  0.98749839     0.97100
C55         C  0.78618782  0.00098961  0.06308871     1.04500
O56         O  0.78789914  0.92668184  0.02702454    -1.12600
O57         O  0.81297719  0.89471398  0.05338162    -0.75100
O58         O  0.81919007  0.94166299  0.02718315    -0.78600
O59         O  0.76326823  0.96282826  0.00081033    -0.79200
C60         C  0.82243602  0.91596864  0.04422203     0.96000
O61         O  0.80211285  0.93836620  0.97266801    -0.77200
O62         O  0.78480065  0.86530651  0.06797760    -0.82400
C63         C  0.76583216  0.86462690  0.00645522     0.98600
C64         C  0.77587199  0.88043974  0.08499413     1.04600
O65         O  0.76018844  0.89012419  0.02059671    -0.78000
C66         C  0.80620687  0.90678462  0.96852949     1.02900
Fe67       Fe  0.94522696  0.77487425  0.01769895     1.65800
Fe68       Fe  0.95032528  0.85975496  0.03302148     1.73200
Fe69       Fe  0.97715153  0.80205698  0.04450543     1.54400
O70         O  0.97101112  0.75343651  0.06278155    -0.81800
O71         O  0.96637223  0.87530940  0.00685905    -0.80100
O72         O  0.94740398  0.74756637  0.05626372    -0.84300
O73         O  0.96201854  0.74583545  0.99900999    -0.79100
O74         O  0.97433390  0.82593887  0.08490700    -0.80900
O75         O  0.93828088  0.85404674  0.99427315    -0.83700
C76         C  0.97492261  0.75328330  0.99240374     0.97100
C77         C  0.95922130  0.73713639  0.06726845     1.04500
O78         O  0.95758430  0.81204845  0.03233180    -1.12600
O79         O  0.93357227  0.84563760  0.05885778    -0.75100
O80         O  0.92630225  0.79962354  0.03293701    -0.78600
O81         O  0.98162727  0.77814842  0.00504912    -0.79200
C82         C  0.92362067  0.82598797  0.04956972     0.96000
O83         O  0.94330406  0.80013956  0.97832805    -0.77200
O84         O  0.96180413  0.87315327  0.07100603    -0.82400
C85         C  0.97972064  0.87304067  0.01063450     0.98600
C86         C  0.96975072  0.85708266  0.08961119     1.04600
O87         O  0.98541615  0.84946808  0.02706741    -0.78000
C88         C  0.93929687  0.83159928  0.97354004     1.02900
Fe89       Fe  0.04922340  0.52585334  0.76508937     1.65800
Fe90       Fe  0.04279530  0.61189380  0.77692721     1.73200
Fe91       Fe  0.01756637  0.55259928  0.79315596     1.54400
O92         O  0.01234590  0.52940881  0.75373772    -0.81800
O93         O  0.03184873  0.62526467  0.81524625    -0.80100
O94         O  0.03209084  0.49760990  0.74582086    -0.84300
O95         O  0.04723385  0.49894448  0.80401348    -0.79100
O96         O  0.00867804  0.60074037  0.77938182    -0.80900
O97         O  0.06049619  0.60133008  0.80170387    -0.83700
C98         C  0.03555715  0.48781093  0.81458785     0.97100
C99         C  0.01891414  0.50472807  0.74043719     1.04500
O100        O  0.03667356  0.56326540  0.77871729    -1.12600
O101        O  0.05431729  0.60589038  0.73847785    -0.75100
O102        O  0.05218088  0.54959844  0.72522099    -0.78600
O103        O  0.02367026  0.50337059  0.80981053    -0.79200
C104        C  0.05552354  0.58133767  0.71969205     0.96000
O105        O  0.06774919  0.55080861  0.78160139    -0.77200
O106        O  0.02549850  0.62412957  0.75138955    -0.82400
C107        C  0.02508984  0.60893912  0.83542275     0.98600
C108        C  0.01311782  0.62491544  0.76226320     1.04600
O109        O  0.02189079  0.57630566  0.83302491    -0.78000
C110        C  0.07025895  0.57903948  0.79614745     1.02900
Fe111      Fe  0.19380885  0.71037574  0.76322790     1.65800
Fe112      Fe  0.19715997  0.62581168  0.78221032     1.73200
Fe113      Fe  0.22513450  0.68090341  0.79141961     1.54400
O114        O  0.23031693  0.70388474  0.75157763    -0.81800
O115        O  0.20869075  0.61198816  0.81990317    -0.80100
O116        O  0.21099704  0.73666723  0.74315964    -0.84300
O117        O  0.19640442  0.73910549  0.80054045    -0.79100
O118        O  0.23228621  0.63144385  0.77491541    -0.80900
O119        O  0.18096320  0.64377819  0.80794401    -0.83700
C120        C  0.20806973  0.74829454  0.81272292     0.97100
C121        C  0.22398709  0.72866985  0.73778901     1.04500
O122        O  0.20545543  0.67254941  0.77934734    -1.12600
O123        O  0.18478354  0.63151038  0.74416408    -0.75100
O124        O  0.19126601  0.68311875  0.72530299    -0.78600
O125        O  0.21975455  0.73089844  0.80929128    -0.79200
C126        C  0.18613725  0.65240848  0.72238703     0.96000
O127        O  0.17458574  0.68895306  0.77974160    -0.77200
O128        O  0.21266260  0.60641086  0.75624496    -0.82400
C129        C  0.21706400  0.62765678  0.83770532     0.98600
C130        C  0.22605152  0.60724864  0.75994892     1.04600
O131        O  0.22192427  0.65833851  0.83222088    -0.78000
C132        C  0.17142816  0.66428108  0.79782112     1.02900
Fe133      Fe  0.05222061  0.70833257  0.47418413     1.65800
Fe134      Fe  0.04650692  0.62568266  0.45015628     1.73200
Fe135      Fe  0.02081160  0.68745192  0.44156862     1.54400
O136        O  0.01532803  0.70690673  0.48238559    -0.81800
O137        O  0.03571334  0.61854416  0.41043076    -0.80100
O138        O  0.03529992  0.73528945  0.49443743    -0.84300
O139        O  0.05105794  0.74154044  0.43879666    -0.79100
O140        O  0.01170153  0.63851571  0.45216428    -0.80900
O141        O  0.06424776  0.64227696  0.42786581    -0.83700
C142        C  0.03973538  0.75362681  0.42703374     0.97100
C143        C  0.02191524  0.72987721  0.49761823     1.04500
O144        O  0.03982538  0.67389806  0.45514570    -1.12600
O145        O  0.05776719  0.62485182  0.48971389    -0.75100
O146        O  0.05406291  0.67723810  0.51064913    -0.78600
O147        O  0.02776075  0.73752144  0.42865846    -0.79200
C148        C  0.05805934  0.64522313  0.51186403     0.96000
O149        O  0.07095308  0.68587487  0.45736656    -0.77200
O150        O  0.02928512  0.60658807  0.47238666    -0.82400
C151        C  0.02798619  0.63732548  0.39333939     0.98600
C152        C  0.01631066  0.61084638  0.46515396     1.04600
O153        O  0.02450436  0.66886962  0.39971810    -0.78000
C154        C  0.07388893  0.66184400  0.43874455     1.02900
Fe155      Fe  0.19654278  0.52066220  0.47024060     1.65800
Fe156      Fe  0.20249082  0.60624690  0.45767107     1.73200
Fe157      Fe  0.22715195  0.54660460  0.43866110     1.54400
O158        O  0.23335758  0.52233977  0.47733437    -0.81800
O159        O  0.21270194  0.62061526  0.41822907    -0.80100
O160        O  0.21382283  0.48965219  0.48451626    -0.84300
O161        O  0.19646168  0.49618770  0.43052472    -0.79100
O162        O  0.23657796  0.59424261  0.45263438    -0.80900
O163        O  0.18428736  0.59573353  0.43445555    -0.83700
C164        C  0.20750002  0.48427636  0.41782512     0.97100
C165        C  0.22693757  0.49668659  0.48961182     1.04500
O166        O  0.20863536  0.55775575  0.45508401    -1.12600
O167        O  0.19180935  0.59874842  0.49739884    -0.75100
O168        O  0.19643722  0.54325598  0.51072693    -0.78600
O169        O  0.21986068  0.49815473  0.42147546    -0.79200
C170        C  0.19252372  0.57440135  0.51674819     0.96000
O171        O  0.17756667  0.54723649  0.45848503    -0.77200
O172        O  0.22024647  0.61802059  0.48176529    -0.82400
C173        C  0.21891225  0.60386279  0.39751321     0.98600
C174        C  0.23256599  0.61803369  0.47058240     1.04600
O175        O  0.22180536  0.57110645  0.39979513    -0.78000
C176        C  0.17466800  0.57435029  0.44271883     1.02900
Fe177      Fe  0.69111283  0.21618195  0.76454943     1.65800
Fe178      Fe  0.69671230  0.12995217  0.77716510     1.73200
Fe179      Fe  0.72290318  0.18786648  0.79094724     1.54400
O180        O  0.72762952  0.21132188  0.75141933    -0.81800
O181        O  0.70844241  0.11555972  0.81491594    -0.80100
O182        O  0.70811001  0.24457241  0.74548869    -0.84300
O183        O  0.69367238  0.24269095  0.80353064    -0.79100
O184        O  0.73109540  0.13986444  0.77573668    -0.80900
O185        O  0.67952612  0.14207984  0.80293630    -0.83700
C186        C  0.70569909  0.25351053  0.81293942     0.97100
C187        C  0.72106788  0.23690669  0.73914761     1.04500
O188        O  0.70348105  0.17816318  0.77799402    -1.12600
O189        O  0.68458014  0.13717835  0.73908121    -0.75100
O190        O  0.68833521  0.19250690  0.72470725    -0.78600
O191        O  0.71735844  0.23713767  0.80791611    -0.79200
C192        C  0.68452599  0.16108250  0.71931692     0.96000
O193        O  0.67239963  0.19151242  0.78060875    -0.77200
O194        O  0.71324760  0.11571249  0.75058202    -0.82400
C195        C  0.71596317  0.13166413  0.83417159     0.98600
C196        C  0.72616241  0.11611212  0.75877943     1.04600
O197        O  0.71927913  0.16411807  0.83107221    -0.78000
C198        C  0.66975490  0.16389372  0.79599040     1.02900
Fe199      Fe  0.54850989  0.01581807  0.76556587     1.65800
Fe200      Fe  0.54244471  0.10091519  0.77998686     1.73200
Fe201      Fe  0.51710402  0.04077290  0.79522925     1.54400
O202        O  0.51172797  0.01759334  0.75592010    -0.81800
O203        O  0.53142184  0.11351085  0.81890012    -0.80100
O204        O  0.53155605  0.98650603  0.74785700    -0.84300
O205        O  0.54737060  0.98912332  0.80437414    -0.79100
O206        O  0.50793767  0.08811406  0.78091222    -0.80900
O207        O  0.56036824  0.08919324  0.80423976    -0.83700
C208        C  0.53603338  0.97794305  0.81645714     0.97100
C209        C  0.51843469  0.99343039  0.74240560     1.04500
O210        O  0.53608692  0.05240053  0.78068083    -1.12600
O211        O  0.55375264  0.09557443  0.74038880    -0.75100
O212        O  0.54986552  0.04035418  0.72585509    -0.78600
O213        O  0.52386377  0.99235020  0.81221237    -0.79200
C214        C  0.55349418  0.07191601  0.72049158     0.96000
O215        O  0.56730101  0.04105131  0.78021921    -0.77200
O216        O  0.52509442  0.11445190  0.75528792    -0.82400
C217        C  0.52422352  0.09662296  0.83823484     0.98600
C218        C  0.51233404  0.11283326  0.76425628     1.04600
O219        O  0.52122474  0.06408158  0.83510046    -0.78000
C220        C  0.57007014  0.06781250  0.79633220     1.02900
Fe221      Fe  0.69387463  0.02569817  0.46783459     1.65800
Fe222      Fe  0.69894220  0.11089334  0.45162577     1.73200
Fe223      Fe  0.72490699  0.05187870  0.43700599     1.54400
O224        O  0.73071258  0.02803287  0.47601524    -0.81800
O225        O  0.70980760  0.12405554  0.41311367    -0.80100
O226        O  0.71103034  0.99756713  0.48636104    -0.84300
O227        O  0.69517394  0.99702261  0.42977654    -0.79100
O228        O  0.73354709  0.09938903  0.45220917    -0.80900
O229        O  0.68139491  0.09744429  0.42731887    -0.83700
C230        C  0.70642194  0.98751678  0.41626918     0.97100
C231        C  0.72426173  0.00425412  0.49054977     1.04500
O232        O  0.70586581  0.06259103  0.45164289    -1.12600
O233        O  0.68744645  0.10593649  0.49055666    -0.75100
O234        O  0.69251134  0.05197234  0.50678534    -0.78600
O235        O  0.71835326  0.00352595  0.41938029    -0.79200
C236        C  0.68852082  0.08347154  0.51125683     0.96000
O237        O  0.67487257  0.04986804  0.45265277    -0.77200
O238        O  0.71592754  0.12585006  0.47657904    -0.82400
C239        C  0.71705095  0.10782827  0.39371675     0.98600
C240        C  0.72881966  0.12403884  0.46853385     1.04600
O241        O  0.72075394  0.07572236  0.39712342    -0.78000
C242        C  0.67180508  0.07633655  0.43623920     1.02900
Fe243      Fe  0.54797081  0.21080689  0.47099301     1.65800
Fe244      Fe  0.54375530  0.12692034  0.45047565     1.73200
Fe245      Fe  0.51690413  0.18447977  0.43972357     1.54400
O246        O  0.51117204  0.20430179  0.48020402    -0.81800
O247        O  0.53267605  0.11606375  0.41131921    -0.80100
O248        O  0.53049161  0.23632612  0.49051609    -0.84300
O249        O  0.54585412  0.24228278  0.43462723    -0.79100
O250        O  0.50915305  0.13472283  0.45201376    -0.80900
O251        O  0.56065915  0.14421374  0.42635532    -0.83700
C252        C  0.53406923  0.25274984  0.42357563     0.97100
C253        C  0.51735770  0.22855737  0.49473463     1.04500
O254        O  0.53622832  0.17436283  0.45331505    -1.12600
O255        O  0.55557515  0.12983142  0.48953837    -0.75100
O256        O  0.55012581  0.18189967  0.50869284    -0.78600
O257        O  0.52248158  0.23509874  0.42549385    -0.79200
C258        C  0.55474576  0.15055493  0.51143146     0.96000
O259        O  0.56724387  0.18902411  0.45462807    -0.77200
O260        O  0.52733337  0.10832408  0.47507677    -0.82400
C261        C  0.52511873  0.13357376  0.39290322     0.98600
C262        C  0.51438133  0.10946001  0.46722390     1.04600
O263        O  0.52108695  0.16498933  0.39831849    -0.78000
C264        C  0.57030056  0.16408657  0.43677531     1.02900
Fe265      Fe  0.69191278  0.71440644  0.26273295     1.65800
Fe266      Fe  0.69680519  0.62958067  0.27940877     1.73200
Fe267      Fe  0.72366323  0.68696364  0.29051161     1.54400
O268        O  0.72860973  0.71065872  0.25113485    -0.81800
O269        O  0.70866541  0.61581102  0.31680807    -0.80100
O270        O  0.70898479  0.74271244  0.24311576    -0.84300
O271        O  0.69418461  0.74223212  0.30074303    -0.79100
O272        O  0.73165971  0.63859575  0.27405493    -0.80900
O273        O  0.68035367  0.64448395  0.30569357    -0.83700
C274        C  0.70589814  0.75267618  0.31199166     0.97100
C275        C  0.72216070  0.73576156  0.23804724     1.04500
O276        O  0.70417286  0.67720390  0.27789359    -1.12600
O277        O  0.68433623  0.63529731  0.24123363    -0.75100
O278        O  0.68960226  0.68855289  0.22398798    -0.78600
O279        O  0.71772727  0.73619137  0.30823627    -0.79200
C280        C  0.68506207  0.65743753  0.22011001     0.96000
O281        O  0.67293070  0.69021142  0.27910427    -0.77200
O282        O  0.71272553  0.61333761  0.25312718    -0.82400
C283        C  0.71662534  0.63192617  0.33516382     0.98600
C284        C  0.72600943  0.61453675  0.25811424     1.04600
O285        O  0.72046259  0.66373041  0.33091292    -0.78000
C286        C  0.67038713  0.66436199  0.29662725     1.02900
Fe287      Fe  0.54930656  0.51614296  0.26671222     1.65800
Fe288      Fe  0.54589835  0.60209411  0.27997872     1.73200
Fe289      Fe  0.51740671  0.54873434  0.28815492     1.54400
O290        O  0.51327196  0.52230710  0.24968624    -0.81800
O291        O  0.53341664  0.61934737  0.31524478    -0.80100
O292        O  0.53243283  0.48779393  0.24662255    -0.84300
O293        O  0.54558115  0.49189241  0.30588452    -0.79100
O294        O  0.51101015  0.59634827  0.26725320    -0.80900
O295        O  0.56117385  0.58560168  0.30901145    -0.83700
C296        C  0.53358198  0.48491643  0.31753727     0.97100
C297        C  0.51959611  0.49552476  0.23921400     1.04500
O298        O  0.53741210  0.55557516  0.27849135    -1.12600
O299        O  0.55921428  0.59257868  0.24395126    -0.75100
O300        O  0.55297172  0.53968567  0.22726201    -0.78600
O301        O  0.52204012  0.50120190  0.31037828    -0.79200
C302        C  0.55837346  0.57000996  0.22326801     0.96000
O303        O  0.56829193  0.53901113  0.28379294    -0.77200
O304        O  0.53130640  0.61997044  0.25086458    -0.82400
C305        C  0.52439405  0.60488924  0.33236912     0.98600
C306        C  0.51780745  0.61955534  0.25225454     1.04600
O307        O  0.51952374  0.57421712  0.32752777    -0.78000
C308        C  0.57102247  0.56499867  0.30082607     1.02900
Fe309      Fe  0.69550448  0.52385493  0.96693083     1.65800
Fe310      Fe  0.70036632  0.60989227  0.95405237     1.73200
Fe311      Fe  0.72648069  0.55258473  0.93789459     1.54400
O312        O  0.73228310  0.52950164  0.97724181    -0.81800
O313        O  0.71117499  0.62451633  0.91530341    -0.80100
O314        O  0.71303501  0.49601431  0.98473198    -0.84300
O315        O  0.69714592  0.49818710  0.92777564    -0.79100
O316        O  0.73473548  0.60123331  0.95175024    -0.80900
O317        O  0.68269457  0.59772133  0.92951267    -0.83700
C318        C  0.70871271  0.48795146  0.91614094     0.97100
C319        C  0.72605045  0.50411167  0.99033489     1.04500
O320        O  0.70733451  0.56196424  0.95248383    -1.12600
O321        O  0.68905580  0.60240783  0.99307095    -0.75100
O322        O  0.69350218  0.54715328  0.00698273    -0.78600
O323        O  0.72064156  0.50329537  0.92099507    -0.79200
C324        C  0.68947915  0.57830231  0.01265706     0.96000
O325        O  0.67640931  0.54762170  0.95171937    -0.77200
O326        O  0.71748306  0.62333185  0.97943360    -0.82400
C327        C  0.71827729  0.60847216  0.89540152     0.98600
C328        C  0.72990245  0.62488909  0.96884350     1.04600
O329        O  0.72170887  0.57604906  0.89816405    -0.78000
C330        C  0.67335121  0.57469232  0.93594129     1.02900
Fe331      Fe  0.55069036  0.70506085  0.97173640     1.65800
Fe332      Fe  0.54420070  0.61999554  0.95633625     1.73200
Fe333      Fe  0.51930451  0.68129132  0.94051293     1.54400
O334        O  0.51379537  0.70520535  0.97950349    -0.81800
O335        O  0.53282807  0.60743436  0.91755470    -0.80100
O336        O  0.53382964  0.73429814  0.99016418    -0.84300
O337        O  0.54965888  0.73413081  0.93391141    -0.79100
O338        O  0.50997554  0.63441976  0.95456005    -0.80900
O339        O  0.56213728  0.63119014  0.93222431    -0.83700
C340        C  0.53834983  0.74499791  0.92127798     0.97100
C341        C  0.52045253  0.72890695  0.99378388     1.04500
O342        O  0.53818432  0.66902500  0.95561959    -1.12600
O343        O  0.55584690  0.62415671  0.99564950    -0.75100
O344        O  0.55215847  0.67906094  0.01081936    -0.78600
O345        O  0.52637520  0.72932200  0.92396555    -0.79200
C346        C  0.55572943  0.64737210  0.01582750     0.96000
O347        O  0.56920259  0.67965814  0.95601664    -0.77200
O348        O  0.52680850  0.60767073  0.98114759    -0.82400
C349        C  0.52568868  0.62428230  0.89796277     0.98600
C350        C  0.51420451  0.60936890  0.97111371     1.04600
O351        O  0.52321371  0.65723518  0.90058925    -0.78000
C352        C  0.57182055  0.65299859  0.93963954     1.02900
Fe353      Fe  0.30016857  0.76794338  0.21801933     1.65800
Fe354      Fe  0.29725532  0.85340257  0.20257705     1.73200
Fe355      Fe  0.26879319  0.80062402  0.19260931     1.54400
O356        O  0.27324242  0.75030720  0.17472954    -0.81800
O357        O  0.28208532  0.87123130  0.22995296    -0.80100
O358        O  0.29684426  0.74187834  0.17954122    -0.84300
O359        O  0.28273908  0.74147748  0.23727615    -0.79100
O360        O  0.27176077  0.82354543  0.15188904    -0.80900
O361        O  0.30984464  0.84517286  0.24059223    -0.83700
C362        C  0.27000847  0.75073308  0.24390148     0.97100
C363        C  0.28464922  0.73236318  0.16996017     1.04500
O364        O  0.28872209  0.80713600  0.20379313    -1.12600
O365        O  0.31325799  0.83643345  0.17556868    -0.75100
O366        O  0.31956892  0.78952819  0.20192104    -0.78600
O367        O  0.26415498  0.77782847  0.23251667    -0.79200
C368        C  0.32275212  0.81507190  0.18463660     0.96000
O369        O  0.30322077  0.79247880  0.25720848    -0.77200
O370        O  0.28503329  0.86938460  0.16579631    -0.82400
C371        C  0.26885362  0.87356009  0.22477798     0.98600
C372        C  0.27608947  0.85507264  0.14816033     1.04600
O373        O  0.26228163  0.85045764  0.20931823    -0.78000
C374        C  0.30842155  0.82291459  0.26154424     1.02900
Fe375      Fe  0.44491699  0.96214451  0.21638303     1.65800
Fe376      Fe  0.45067709  0.87600750  0.20351833     1.73200
Fe377      Fe  0.47622984  0.93481667  0.18688172     1.54400
O378        O  0.46991796  0.98369282  0.16991045    -0.81800
O379        O  0.46808916  0.86201652  0.22803331    -0.80100
O380        O  0.44651626  0.98985686  0.17743358    -0.84300
O381        O  0.46219650  0.99068538  0.23406713    -0.79100
O382        O  0.47179658  0.91087678  0.14715479    -0.80900
O383        O  0.43963810  0.88217975  0.24304103    -0.83700
C384        C  0.47547944  0.98438592  0.23855156     0.97100
C385        C  0.45820009  0.00044241  0.16617206     1.04500
O386        O  0.45717071  0.92451680  0.20185170    -1.12600
O387        O  0.43272686  0.88763538  0.17959438    -0.75100
O388        O  0.42592559  0.93732509  0.20152752    -0.78600
O389        O  0.48194109  0.95906822  0.22581352    -0.79200
C390        C  0.42304554  0.90946720  0.18674118     0.96000
O391        O  0.44300565  0.93789829  0.25655388    -0.77200
O392        O  0.46133655  0.86243525  0.16460062    -0.82400
C393        C  0.48061189  0.86196827  0.21774941     0.98600
C394        C  0.46847949  0.87836475  0.14469626     1.04600
O395        O  0.48508712  0.88662260  0.20104709    -0.78000
C396        C  0.43964548  0.90624763  0.26254758     1.02900
Fe397      Fe  0.30159118  0.95974282  0.51341544     1.65800
Fe398      Fe  0.29758981  0.87461945  0.52990457     1.73200
Fe399      Fe  0.27052621  0.93086164  0.54283325     1.54400
O400        O  0.27673891  0.97877881  0.56211372    -0.81800
O401        O  0.28151844  0.85812799  0.50386746    -0.80100
O402        O  0.29987155  0.98704492  0.55183104    -0.84300
O403        O  0.28433140  0.98798812  0.49550871    -0.79100
O404        O  0.27414992  0.90626351  0.58244306    -0.80900
O405        O  0.30967890  0.88132171  0.49145118    -0.83700
C406        C  0.27105443  0.98164982  0.49181974     0.97100
C407        C  0.28857511  0.99529623  0.56564401     1.04500
O408        O  0.28983162  0.92196669  0.52904750    -1.12600
O409        O  0.31425626  0.89043308  0.55572363    -0.75100
O410        O  0.32071701  0.93663354  0.52873160    -0.78600
O411        O  0.26485466  0.95620587  0.50466864    -0.79200
C412        C  0.32377899  0.91150920  0.54649111     0.96000
O413        O  0.30341722  0.93394966  0.47415077    -0.77200
O414        O  0.28599896  0.85908044  0.56727377    -0.82400
C415        C  0.26821745  0.85976289  0.50853315     0.98600
C416        C  0.27782863  0.87425511  0.58574427     1.04600
O417        O  0.26257390  0.88330284  0.52496674    -0.78000
C418        C  0.30828908  0.90305954  0.47014745     1.02900
Fe419      Fe  0.44425086  0.76643117  0.51604448     1.65800
Fe420      Fe  0.44941601  0.85196655  0.52806491     1.73200
Fe421      Fe  0.47646020  0.79580634  0.53879904     1.54400
O422        O  0.47146803  0.74670506  0.55790934    -0.81800
O423        O  0.46449378  0.86604423  0.49880397    -0.80100
O424        O  0.44770477  0.74028184  0.55519894    -0.84300
O425        O  0.46082605  0.73753229  0.49648359    -0.79100
O426        O  0.47388680  0.81977915  0.57887367    -0.80900
O427        O  0.43591027  0.84403101  0.49210387    -0.83700
C428        C  0.47350425  0.74558530  0.48857417     0.97100
C429        C  0.45994212  0.73035655  0.56461985     1.04500
O430        O  0.45669693  0.80442394  0.52826689    -1.12600
O431        O  0.43393117  0.83839051  0.55690406    -0.75100
O432        O  0.42571713  0.79169468  0.53299987    -0.78600
O433        O  0.48013898  0.77184611  0.49929323    -0.79200
C434        C  0.42366366  0.81871424  0.54938954     0.96000
O435        O  0.44138399  0.79054939  0.47602485    -0.77200
O436        O  0.46217319  0.86752110  0.56347052    -0.82400
C437        C  0.47770896  0.86713996  0.50437541     0.98600
C438        C  0.47002610  0.85172348  0.58232076     1.04600
O439        O  0.48372082  0.84423430  0.52102831    -0.78000
C440        C  0.43726087  0.82200347  0.47128228     1.02900
Fe441      Fe  0.79976188  0.27341865  0.21928745     1.65800
Fe442      Fe  0.79518011  0.35933937  0.20438815     1.73200
Fe443      Fe  0.76861509  0.30195774  0.18970165     1.54400
O444        O  0.77426542  0.25252102  0.17272070    -0.81800
O445        O  0.77829753  0.37519917  0.22929283    -0.80100
O446        O  0.79767159  0.24544444  0.18090197    -0.84300
O447        O  0.78244582  0.24608476  0.23742798    -0.79100
O448        O  0.77282859  0.32512626  0.14962707    -0.80900
O449        O  0.80651554  0.35320058  0.24388843    -0.83700
C450        C  0.76937771  0.25371476  0.24236073     0.97100
C451        C  0.78592910  0.23543809  0.16934660     1.04500
O452        O  0.78792890  0.31137616  0.20392308    -1.12600
O453        O  0.81276483  0.34567758  0.18019859    -0.75100
O454        O  0.81897471  0.29663389  0.20415045    -0.78600
O455        O  0.76303133  0.27882386  0.22900631    -0.79200
C456        C  0.82217360  0.32344916  0.18826505     0.96000
O457        O  0.80171504  0.29852594  0.25882147    -0.77200
O458        O  0.78438142  0.37291435  0.16532698    -0.82400
C459        C  0.76540853  0.37452259  0.22095446     0.98600
C460        C  0.77693103  0.35689371  0.14590994     1.04600
O461        O  0.76046831  0.35033118  0.20440008    -0.78000
C462        C  0.80563571  0.32992339  0.26407125     1.02900
Fe463      Fe  0.94440877  0.46525682  0.22053464     1.65800
Fe464      Fe  0.94826928  0.38062319  0.20135502     1.73200
Fe465      Fe  0.97664114  0.43669031  0.19766298     1.54400
O466        O  0.97129313  0.48564478  0.17772564    -0.81800
O467        O  0.96382796  0.35900869  0.22668162    -0.80100
O468        O  0.94753040  0.49290774  0.18262884    -0.84300
O469        O  0.96091771  0.49441056  0.24023206    -0.79100
O470        O  0.97566146  0.41300822  0.15719104    -0.80900
O471        O  0.93626990  0.38512484  0.24046855    -0.83700
C472        C  0.97363632  0.48681917  0.24796732     0.97100
C473        C  0.95961680  0.50257279  0.17258051     1.04500
O474        O  0.95654409  0.42744483  0.20591968    -1.12600
O475        O  0.93172708  0.39889816  0.17553119    -0.75100
O476        O  0.92531057  0.44309141  0.20417515    -0.78600
O477        O  0.98009825  0.46022555  0.23776077    -0.79200
C478        C  0.92216539  0.41897150  0.18577086     0.96000
O479        O  0.94189334  0.43798174  0.25891324    -0.77200
O480        O  0.95984904  0.36939383  0.16310108    -0.82400
C481        C  0.97720676  0.36331717  0.22891509     0.98600
C482        C  0.96989579  0.38437514  0.14881600     1.04600
O483        O  0.98375715  0.38925823  0.21704174    -0.78000
C484        C  0.93759995  0.40636063  0.26213415     1.02900
Fe485      Fe  0.79943459  0.46607317  0.51566953     1.65800
Fe486      Fe  0.79530463  0.38097675  0.53242311     1.73200
Fe487      Fe  0.76730081  0.43633346  0.53893621     1.54400
O488        O  0.77234690  0.48472438  0.55876192    -0.81800
O489        O  0.78039332  0.36257092  0.50462539    -0.80100
O490        O  0.79592734  0.49325577  0.55373702    -0.84300
O491        O  0.78283010  0.49410913  0.49471189    -0.79100
O492        O  0.76904365  0.41235545  0.57939007    -0.80900
O493        O  0.80835506  0.38744758  0.49519411    -0.83700
C494        C  0.76995583  0.48663323  0.48776364     0.97100
C495        C  0.78389569  0.50140649  0.56486003     1.04500
O496        O  0.78724996  0.42793069  0.52939005    -1.12600
O497        O  0.81088258  0.39797622  0.56043418    -0.75100
O498        O  0.81825105  0.44321634  0.53350437    -0.78600
O499        O  0.76342072  0.46078358  0.49933837    -0.79200
C500        C  0.82076292  0.41817357  0.55174546     0.96000
O501        O  0.80266701  0.44015624  0.47703843    -0.77200
O502        O  0.78277675  0.36632556  0.56866562    -0.82400
C503        C  0.76693084  0.36385844  0.50655244     0.98600
C504        C  0.77358449  0.38145366  0.58503873     1.04600
O505        O  0.76042262  0.38833640  0.52042945    -0.78000
C506        C  0.80736187  0.40900702  0.47362050     1.02900
Fe507      Fe  0.94109077  0.27461800  0.51626225     1.65800
Fe508      Fe  0.94517583  0.36043917  0.53109591     1.73200
Fe509      Fe  0.97271156  0.30489678  0.54272456     1.54400
O510        O  0.96787887  0.25543245  0.56140949    -0.81800
O511        O  0.96067088  0.37683520  0.50354466    -0.80100
O512        O  0.94454649  0.24611197  0.55400356    -0.84300
O513        O  0.95819365  0.24838037  0.49581283    -0.79100
O514        O  0.96946744  0.32863236  0.58282813    -0.80900
O515        O  0.93235043  0.35367254  0.49352166    -0.83700
C516        C  0.97131966  0.25563262  0.49090768     0.97100
C517        C  0.95654073  0.23706109  0.56503104     1.04500
O518        O  0.95298865  0.31299573  0.53043968    -1.12600
O519        O  0.92900212  0.34527589  0.55830494    -0.75100
O520        O  0.92229578  0.29669117  0.53460108    -0.78600
O521        O  0.97767347  0.28086306  0.50379000    -0.79200
C522        C  0.91951601  0.32276269  0.55156095     0.96000
O523        O  0.93746701  0.30012780  0.47705093    -0.77200
O524        O  0.95738669  0.37588932  0.56782190    -0.82400
C525        C  0.97401224  0.37618146  0.50801005     0.98600
C526        C  0.96560046  0.36052868  0.58635654     1.04600
O527        O  0.97991596  0.35323265  0.52482448    -0.78000
C528        C  0.93294250  0.33131445  0.47268324     1.02900
Fe529      Fe  0.04874927  0.02712912  0.27097426     1.65800
Fe530      Fe  0.04130355  0.11194572  0.28436926     1.73200
Fe531      Fe  0.01697501  0.05019443  0.30127353     1.54400
O532        O  0.01158780  0.02574255  0.26222587    -0.81800
O533        O  0.03050144  0.12398353  0.32305095    -0.80100
O534        O  0.03198404  0.99760676  0.25198053    -0.84300
O535        O  0.04750279  0.99935231  0.30937163    -0.79100
O536        O  0.00725620  0.09770614  0.28734979    -0.80900
O537        O  0.05935987  0.10319453  0.30861474    -0.83700
C538        C  0.03640966  0.98767049  0.32197538     0.97100
C539        C  0.01856331  0.00259147  0.24786191     1.04500
O540        O  0.03580878  0.06278581  0.28594465    -1.12600
O541        O  0.05259566  0.10789879  0.24559288    -0.75100
O542        O  0.05088393  0.05206995  0.23110690    -0.78600
O543        O  0.02414261  0.00196802  0.31859198    -0.79200
C544        C  0.05341490  0.08436169  0.22590531     0.96000
O545        O  0.06691467  0.05324873  0.28796474    -0.77200
O546        O  0.02377655  0.12206146  0.25919112    -0.82400
C547        C  0.02433332  0.10691640  0.34356897     0.98600
C548        C  0.01144179  0.12224517  0.27019442     1.04600
O549        O  0.02127832  0.07428293  0.34095311    -0.78000
C550        C  0.06917886  0.08096786  0.30340153     1.02900
Fe551      Fe  0.19097698  0.20585010  0.26936344     1.65800
Fe552      Fe  0.19845689  0.12098411  0.28453468     1.73200
Fe553      Fe  0.22298519  0.18329996  0.29884432     1.54400
O554        O  0.22776233  0.20630462  0.25911617    -0.81800
O555        O  0.20996628  0.10977259  0.32319274    -0.80100
O556        O  0.20737466  0.23461445  0.24907478    -0.84300
O557        O  0.19263221  0.23551252  0.30677322    -0.79100
O558        O  0.23261407  0.13612726  0.28511943    -0.80900
O559        O  0.18062405  0.13091725  0.30905670    -0.83700
C560        C  0.20400915  0.24714122  0.31852030     0.97100
C561        C  0.22064716  0.22896720  0.24438016     1.04500
O562        O  0.20400395  0.17029122  0.28472433    -1.12600
O563        O  0.18669000  0.12406188  0.24558377    -0.75100
O564        O  0.18853115  0.17959334  0.23037989    -0.78600
O565        O  0.21605977  0.23189200  0.31518154    -0.79200
C566        C  0.18565077  0.14744236  0.22554547     0.96000
O567        O  0.17306303  0.18054815  0.28744684    -0.77200
O568        O  0.21566291  0.10935384  0.25923672    -0.82400
C569        C  0.21674931  0.12752565  0.34257785     0.98600
C570        C  0.22840546  0.11145890  0.26824961     1.04600
O571        O  0.21931255  0.16026072  0.33907273    -0.78000
C572        C  0.17085081  0.15334114  0.30356327     1.02900
Fe573      Fe  0.04847683  0.21392641  0.97037716     1.65800
Fe574      Fe  0.04188273  0.12873421  0.95603949     1.73200
Fe575      Fe  0.01640503  0.18904984  0.94332325     1.54400
O576        O  0.01202954  0.21084797  0.98351945    -0.81800
O577        O  0.03034521  0.11740843  0.91750669    -0.80100
O578        O  0.03169035  0.24354115  0.98894672    -0.84300
O579        O  0.04639406  0.24155103  0.93162597    -0.79100
O580        O  0.00752446  0.14104963  0.95708847    -0.80900
O581        O  0.05942951  0.14016922  0.93108378    -0.83700
C582        C  0.03458839  0.25334535  0.92160924     0.97100
C583        C  0.01866061  0.23653093  0.99515746     1.04500
O584        O  0.03572114  0.17737925  0.95605680    -1.12600
O585        O  0.05369273  0.13324564  0.99467121    -0.75100
O586        O  0.05081170  0.18855429  0.01009386    -0.78600
O587        O  0.02267490  0.23830932  0.92706329    -0.79200
C588        C  0.05384152  0.15632067  0.01493209     0.96000
O589        O  0.06694764  0.18833075  0.95429607    -0.77200
O590        O  0.02503871  0.11504008  0.98198330    -0.82400
C591        C  0.02302657  0.13479402  0.89853289     0.98600
C592        C  0.01221808  0.11618407  0.97333822     1.04600
O593        O  0.01967431  0.16700750  0.90260870    -0.78000
C594        C  0.06940006  0.16106301  0.93853182     1.02900
Fe595      Fe  0.19167521  0.02012178  0.97109570     1.65800
Fe596      Fe  0.19662683  0.10603570  0.95547952     1.73200
Fe597      Fe  0.22294595  0.04812108  0.94184562     1.54400
O598        O  0.22854423  0.02631597  0.98198520    -0.81800
O599        O  0.20731757  0.11849338  0.91657570    -0.80100
O600        O  0.20910182  0.99381133  0.99073789    -0.84300
O601        O  0.19409169  0.99155432  0.93306460    -0.79100
O602        O  0.23113662  0.09758665  0.95429235    -0.80900
O603        O  0.17902111  0.09239413  0.93135591    -0.83700
C604        C  0.20577928  0.98163034  0.92150304     0.97100
C605        C  0.22218186  0.00168874  0.99591050     1.04500
O606        O  0.20365950  0.05791643  0.95589904    -1.12600
O607        O  0.18545464  0.10096015  0.99463419    -0.75100
O608        O  0.18860703  0.04568726  0.01037564    -0.78600
O609        O  0.21748251  0.99813654  0.92583392    -0.79200
C610        C  0.18521923  0.07769422  0.01484442     0.96000
O611        O  0.17272056  0.04272593  0.95420313    -0.77200
O612        O  0.21368989  0.12204443  0.98004958    -0.82400
C613        C  0.21464158  0.10190622  0.89747777     0.98600
C614        C  0.22621115  0.12266440  0.96983423     1.04600
O615        O  0.21838012  0.06984148  0.90132460    -0.78000
C616        C  0.16964353  0.06976605  0.93845218     1.02900
Fe617      Fe  0.29740950  0.26981499  0.72258383     1.65800
Fe618      Fe  0.29067422  0.35395198  0.70337322     1.73200
Fe619      Fe  0.26589836  0.29088296  0.69011801     1.54400
O620        O  0.27354334  0.24218731  0.67511071    -0.81800
O621        O  0.27269407  0.36910436  0.72550515    -0.80100
O622        O  0.29689046  0.23935860  0.68555256    -0.84300
O623        O  0.28072137  0.24048265  0.74119898    -0.79100
O624        O  0.26965728  0.31272907  0.64948539    -0.80900
O625        O  0.30125934  0.35228727  0.74416841    -0.83700
C626        C  0.26739768  0.24604456  0.74501252     0.97100
C627        C  0.28576007  0.22725848  0.67305736     1.04500
O628        O  0.28472284  0.30479740  0.70486566    -1.12600
O629        O  0.30927834  0.34197186  0.68147984    -0.75100
O630        O  0.31612168  0.29513677  0.70774250    -0.78600
O631        O  0.26053997  0.26878294  0.72992906    -0.79200
C632        C  0.31896229  0.32130866  0.69095353     0.96000
O633        O  0.29820866  0.29740019  0.76073846    -0.77200
O634        O  0.28048008  0.36274814  0.66288297    -0.82400
C635        C  0.25984703  0.36458420  0.71751731     0.98600
C636        C  0.27331655  0.34451919  0.64441846     1.04600
O637        O  0.25582369  0.33803950  0.70250363    -0.78000
C638        C  0.30133816  0.32952122  0.76488705     1.02900
Fe639      Fe  0.44228452  0.46098105  0.71652671     1.65800
Fe640      Fe  0.44475959  0.37446650  0.70449448     1.73200
Fe641      Fe  0.47350615  0.42587217  0.69377555     1.54400
O642        O  0.46994850  0.47601843  0.67499269    -0.81800
O643        O  0.45980785  0.35800711  0.73331421    -0.80100
O644        O  0.44640960  0.48628317  0.67737586    -0.84300
O645        O  0.45990675  0.48639898  0.73665453    -0.79100
O646        O  0.46992971  0.40265446  0.65348155    -0.80900
O647        O  0.43192167  0.38441182  0.74123613    -0.83700
C648        C  0.47255034  0.47683117  0.74424949     0.97100
C649        C  0.45885048  0.49412780  0.66816669     1.04500
O650        O  0.45347409  0.42067816  0.70437044    -1.12600
O651        O  0.42888370  0.39008590  0.67634884    -0.75100
O652        O  0.42298102  0.43972478  0.69920426    -0.78600
O653        O  0.47836640  0.44936185  0.73347859    -0.79200
C654        C  0.41960611  0.41292632  0.68346252     0.96000
O655        O  0.43818721  0.43788209  0.75641708    -0.77200
O656        O  0.45687037  0.35691116  0.66843601    -0.82400
C657        C  0.47283990  0.35383646  0.72725981     0.98600
C658        C  0.46534294  0.37129913  0.64997548     1.04600
O659        O  0.47949032  0.37585717  0.71095079    -0.78000
C660        C  0.43284139  0.40764289  0.76136163     1.02900
Fe661      Fe  0.29631747  0.45826441  0.01912097     1.65800
Fe662      Fe  0.29109225  0.37234644  0.03201652     1.73200
Fe663      Fe  0.26457586  0.43069610  0.04638501     1.54400
O664        O  0.27093472  0.47811927  0.06661783    -0.81800
O665        O  0.27452102  0.35820305  0.00586600    -0.80100
O666        O  0.29431250  0.48429041  0.05814326    -0.84300
O667        O  0.27942793  0.48779633  0.00083267    -0.79100
O668        O  0.26789148  0.40413162  0.08533359    -0.80900
O669        O  0.30295911  0.37966675  0.99361821    -0.83700
C670        C  0.26615135  0.48244087  0.99592140     0.97100
C671        C  0.28280017  0.49443014  0.07024078     1.04500
O672        O  0.28397670  0.42057203  0.03290036    -1.12600
O673        O  0.30853160  0.38436546  0.05760548    -0.75100
O674        O  0.31520752  0.43338563  0.03452060    -0.78600
O675        O  0.25935507  0.45780646  0.00864480    -0.79200
C676        C  0.31819300  0.40611693  0.05009172     0.96000
O677        O  0.29853919  0.43464532  0.97914297    -0.77200
O678        O  0.27967998  0.35692791  0.06940042    -0.82400
C679        C  0.26120297  0.36179698  0.00964261     0.98600
C680        C  0.27178056  0.37215589  0.08831395     1.04600
O681        O  0.25594366  0.38481282  0.02703089    -0.78000
C682        C  0.30266725  0.40346032  0.97375186     1.02900
Fe683      Fe  0.44119788  0.27055258  0.01269658     1.65800
Fe684      Fe  0.44546212  0.35635844  0.02768451     1.73200
Fe685      Fe  0.47358986  0.30088670  0.03418885     1.54400
O686        O  0.46891096  0.25218954  0.05423037    -0.81800
O687        O  0.46028722  0.37484371  0.99965635    -0.80100
O688        O  0.44515209  0.24397672  0.05132045    -0.84300
O689        O  0.45774697  0.24198646  0.99177771    -0.79100
O690        O  0.47234344  0.32538934  0.07456522    -0.80900
O691        O  0.43236781  0.34937000  0.99044300    -0.83700
C692        C  0.47058055  0.24944583  0.98446377     0.97100
C693        C  0.45750058  0.23530441  0.06082921     1.04500
O694        O  0.45347571  0.30917032  0.02534069    -1.12600
O695        O  0.42968656  0.34027543  0.05563139    -0.75100
O696        O  0.42241907  0.29363935  0.03048148    -0.78600
O697        O  0.47695653  0.27624506  0.99474530    -0.79200
C698        C  0.41980977  0.31953100  0.04768926     0.96000
O699        O  0.43753351  0.29576244  0.97361831    -0.77200
O700        O  0.45812600  0.37092914  0.06406736    -0.82400
C701        C  0.47374570  0.37253618  0.00020428     0.98600
C702        C  0.46752220  0.35600667  0.08039362     1.04600
O703        O  0.48032951  0.34839326  0.01456719    -0.78000
C704        C  0.43312803  0.32712335  0.96946169     1.02900
C705        C  0.35909938  0.40225033  0.04751288    -0.27700
C706        C  0.36187273  0.37105853  0.06333154     0.01900
C707        C  0.35048935  0.35396002  0.07756678     0.30000
C708        C  0.33648962  0.36721237  0.07488982    -0.19500
C709        C  0.33344777  0.39734164  0.05755196    -0.28900
C710        C  0.34508282  0.41540359  0.04448744     0.44000
C711        C  0.37638210  0.35481152  0.06232577     0.05200
O712        O  0.35290646  0.32378071  0.09363928    -0.57400
H713        H  0.32789999  0.35275993  0.08538197     0.18100
O714        O  0.34285466  0.44449235  0.02699303    -0.64100
H715        H  0.36777433  0.41558263  0.03629963     0.16600
C716        C  0.37930732  0.32716263  0.04261825     0.28800
C717        C  0.39329664  0.31402529  0.03970525    -0.25000
C718        C  0.40472297  0.32840400  0.05597779    -0.24300
C719        C  0.40159088  0.35522508  0.07671253     0.40300
C720        C  0.38753702  0.36812528  0.07969643    -0.26800
O721        O  0.36861513  0.31363862  0.02527195    -0.58700
H722        H  0.39529771  0.29379980  0.02344196     0.15900
O723        O  0.41219655  0.36937740  0.09396670    -0.60100
H724        H  0.38541307  0.38922486  0.09512235     0.14400
H725        H  0.34290921  0.46491166  0.04059569     0.46200
H726        H  0.36815535  0.32950226  0.00789765     0.41600
H727        H  0.41435645  0.39278826  0.08514666     0.45100
H728        H  0.35123023  0.30401161  0.07979384     0.36500
C729        C  0.41892313  0.35726950  0.82801398    -0.27700
C730        C  0.42388433  0.37864882  0.85105424     0.01900
C731        C  0.43018810  0.41146725  0.84433352     0.30000
C732        C  0.43224355  0.42138006  0.81498800    -0.19500
C733        C  0.42815804  0.39896376  0.79178921    -0.28900
C734        C  0.42091637  0.36721609  0.79863329     0.44000
C735        C  0.42449757  0.36407998  0.88137228     0.05200
O736        O  0.43568641  0.43237854  0.86620107    -0.57400
H737        H  0.43782314  0.44591090  0.81054073     0.18100
O738        O  0.41636145  0.34479826  0.77692584    -0.64100
H739        H  0.41400459  0.33197878  0.83285045     0.16600
C740        C  0.41885779  0.38229283  0.90567597     0.28800
C741        C  0.42130719  0.36952532  0.93425281    -0.25000
C742        C  0.42921392  0.33830257  0.93909759    -0.24300
C743        C  0.43429733  0.31939290  0.91448030     0.40300
C744        C  0.43185896  0.33224832  0.88610846    -0.26800
O745        O  0.41115725  0.41286262  0.90179149    -0.58700
H746        H  0.41719063  0.38440563  0.95266940     0.15900
O747        O  0.44219511  0.28899857  0.91776975    -0.60100
H748        H  0.43632198  0.31796702  0.86768580     0.14400
H749        H  0.40617080  0.35102267  0.77351559     0.46200
H750        H  0.40122060  0.40503728  0.89772786     0.41600
H751        H  0.45232324  0.29685408  0.91835009     0.45100
H752        H  0.42936179  0.45345977  0.86685773     0.36500
C753        C  0.30696256  0.40691105  0.89075161    -0.27700
C754        C  0.31106123  0.37206603  0.88475001     0.01900
C755        C  0.31416120  0.34892950  0.90820894     0.30000
C756        C  0.31212576  0.36010627  0.93720513    -0.19500
C757        C  0.30687754  0.39419627  0.94327826    -0.28900
C758        C  0.30476316  0.41805085  0.91961649     0.44000
C759        C  0.30990000  0.35910723  0.85421728     0.05200
O760        O  0.31906776  0.31531331  0.90286267    -0.57400
H761        H  0.31417112  0.34150077  0.95487434     0.18100
O762        O  0.29999758  0.45191774  0.92418547    -0.64100
H763        H  0.30456363  0.42498076  0.87286693     0.16600
C764        C  0.29993811  0.33246838  0.84739184     0.28800
C765        C  0.29754858  0.32298937  0.81826011    -0.25000
C766        C  0.30472605  0.34018466  0.79527265    -0.24300
C767        C  0.31485254  0.36656521  0.80196001     0.40300
C768        C  0.31737708  0.37590162  0.83135728    -0.26800
O769        O  0.29202088  0.31648673  0.86898696    -0.58700
H770        H  0.28965941  0.30274999  0.81358669     0.15900
O771        O  0.32264620  0.38240543  0.78011867    -0.60100
H772        H  0.32503719  0.39654708  0.83632826     0.14400
H773        H  0.28942023  0.45060034  0.92248520     0.46200
H774        H  0.28322829  0.33104232  0.87073400     0.41600
H775        H  0.31777795  0.40528081  0.77625278     0.45100
H776        H  0.31147872  0.29913190  0.91001222     0.36500
C777        C  0.37925015  0.40595961  0.69153219    -0.27700
C778        C  0.37625931  0.37592854  0.67455045     0.01900
C779        C  0.38707488  0.36222470  0.65641940     0.30000
C780        C  0.40093470  0.37664901  0.65745261    -0.19500
C781        C  0.40428091  0.40507163  0.67631863    -0.28900
C782        C  0.39300421  0.42082004  0.69221239     0.44000
C783        C  0.36208984  0.35819777  0.67748554     0.05200
O784        O  0.38440366  0.33369754  0.63870136    -0.57400
H785        H  0.40926466  0.36422575  0.64459597     0.18100
O786        O  0.39546236  0.44914999  0.71022451    -0.64100
H787        H  0.37094180  0.41734299  0.70509255     0.16600
C788        C  0.35776876  0.34417496  0.70475714     0.28800
C789        C  0.34400633  0.32997458  0.70810221    -0.25000
C790        C  0.33413845  0.33030238  0.68475666    -0.24300
C791        C  0.33855399  0.34357763  0.65724719     0.40300
C792        C  0.35252961  0.35677743  0.65363140    -0.26800
O793        O  0.36696770  0.34425414  0.72832098    -0.58700
H794        H  0.34079313  0.32035693  0.72952747     0.15900
O795        O  0.32930889  0.34362108  0.63377757    -0.60100
H796        H  0.35571249  0.36722572  0.63246843     0.14400
H797        H  0.39369594  0.47027540  0.69774902     0.46200
H798        H  0.36399828  0.36471533  0.74044508     0.41600
H799        H  0.32574040  0.36827607  0.63222248     0.45100
H800        H  0.38701113  0.31267212  0.65066449     0.36500
C801        C  0.25226847  0.28482318  0.96207352    -0.27700
C802        C  0.24198699  0.26788382  0.97947015     0.01900
C803        C  0.23530005  0.28715065  0.00215799     0.30000
C804        C  0.24047230  0.32058534  0.00998690    -0.19500
C805        C  0.25207606  0.33537343  0.99492097    -0.28900
C806        C  0.25709789  0.31860593  0.96925767     0.44000
C807        C  0.23956752  0.22926453  0.97615797     0.05200
O808        O  0.22442554  0.27243849  0.01821252    -0.57400
H809        H  0.23628902  0.33331652  0.02942983     0.18100
O810        O  0.26786251  0.33334401  0.95285341    -0.64100
H811        H  0.25742215  0.27089980  0.94426079     0.16600
C812        C  0.23735774  0.21357952  0.94844988     0.28800
C813        C  0.23478251  0.17720113  0.94652366    -0.25000
C814        C  0.23392224  0.15625958  0.97195497    -0.24300
C815        C  0.23682284  0.17141718  0.99937535     0.40300
C816        C  0.23987567  0.20750884  0.00129850    -0.26800
O817        O  0.23695639  0.23370203  0.92333135    -0.58700
H818        H  0.23230495  0.16585734  0.92529869     0.15900
O819        O  0.23599783  0.15151419  0.02452577    -0.60100
H820        H  0.24212853  0.21871604  0.02267734     0.14400
H821        H  0.26316136  0.35204437  0.94090779     0.46200
H822        H  0.22683519  0.24122066  0.92115933     0.41600
H823        H  0.24565285  0.14093012  0.02700593     0.45100
H824        H  0.21558062  0.27766852  0.00688285     0.36500
C825        C  0.22420887  0.17742849  0.84555357    -0.27700
C826        C  0.23527081  0.16213873  0.82915625     0.01900
C827        C  0.23840204  0.12601595  0.83316782     0.30000
C828        C  0.23094457  0.10615120  0.85412273    -0.19500
C829        C  0.22027069  0.12171490  0.87161770    -0.28900
C830        C  0.21672342  0.15765470  0.86657727     0.44000
C831        C  0.24349196  0.18404404  0.80795577     0.05200
O832        O  0.24894532  0.10997490  0.81709526    -0.57400
H833        H  0.23395198  0.07873634  0.85739277     0.18100
O834        O  0.20603779  0.17388236  0.88216228    -0.64100
H835        H  0.22160286  0.20515058  0.84262600     0.16600
C836        C  0.23649883  0.20223998  0.78505040     0.28800
C837        C  0.24441747  0.22226715  0.76493598    -0.25000
C838        C  0.25941194  0.22486012  0.76720869    -0.24300
C839        C  0.26639852  0.20696930  0.79051242     0.40300
C840        C  0.25843656  0.18685057  0.81061598    -0.26800
O841        O  0.22196476  0.19932147  0.78138611    -0.58700
H842        H  0.23875640  0.23543223  0.74719492     0.15900
O843        O  0.28091263  0.20988156  0.79448552    -0.60100
H844        H  0.26394925  0.17353202  0.82848657     0.14400
H845        H  0.21098946  0.18951289  0.89639888     0.46200
H846        H  0.21794147  0.22184928  0.78882516     0.41600
H847        H  0.28502074  0.18816602  0.78571668     0.45100
H848        H  0.24447220  0.10467821  0.79782180     0.36500
C849        C  0.11017643  0.15387907  0.93940588    -0.27700
C850        C  0.11222586  0.12239355  0.92377637     0.01900
C851        C  0.10043810  0.10607931  0.91033450     0.30000
C852        C  0.08671303  0.12048767  0.91354204    -0.19500
C853        C  0.08438089  0.15104256  0.93062618    -0.28900
C854        C  0.09640824  0.16804373  0.94318804     0.44000
C855        C  0.12650530  0.10535806  0.92374424     0.05200
O856        O  0.10214085  0.07514332  0.89509896    -0.57400
H857        H  0.07778208  0.10661702  0.90366337     0.18100
O858        O  0.09483482  0.19753637  0.96032218    -0.64100
H859        H  0.11922010  0.16659195  0.94994589     0.16600
C860        C  0.13780874  0.11941988  0.90722098     0.28800
C861        C  0.15162404  0.10538336  0.91026478    -0.25000
C862        C  0.15450847  0.07764136  0.93024092    -0.24300
C863        C  0.14291932  0.06235600  0.94556579     0.40300
C864        C  0.12906223  0.07612813  0.94207383    -0.26800
O865        O  0.13548532  0.14722909  0.88837012    -0.58700
H866        H  0.16023493  0.11752011  0.89797332     0.15900
O867        O  0.14506740  0.03526269  0.96520377    -0.60100
H868        H  0.12038294  0.06503101  0.95483760     0.14400
H869        H  0.09427721  0.18851070  0.98076650     0.46200
H870        H  0.13757037  0.16873619  0.90002349     0.41600
H871        H  0.14634844  0.04688572  0.98453063     0.45100
H872        H  0.10474177  0.08250772  0.87489745     0.36500
C873        C  0.22912056  0.29549652  0.18334742    -0.27700
C874        C  0.24366856  0.28850937  0.17828607     0.01900
C875        C  0.25049890  0.26175154  0.19469239     0.30000
C876        C  0.24285401  0.24273061  0.21591507    -0.19500
C877        C  0.22826437  0.24960388  0.22120715    -0.28900
C878        C  0.22140713  0.27631990  0.20444721     0.44000
C879        C  0.25164022  0.30966433  0.15614330     0.05200
O880        O  0.26484177  0.25520895  0.19113344    -0.57400
H881        H  0.24849101  0.22260833  0.22840435     0.18100
O882        O  0.20716148  0.28380277  0.20818324    -0.64100
H883        H  0.22368747  0.31587815  0.17074754     0.16600
C884        C  0.25855937  0.29336831  0.13232759     0.28800
C885        C  0.26579428  0.31392240  0.11146964    -0.25000
C886        C  0.26601000  0.35108540  0.11335425    -0.24300
C887        C  0.25916954  0.36730967  0.13748366     0.40300
C888        C  0.25207381  0.34664546  0.15849818    -0.26800
O889        O  0.25784024  0.25743605  0.12856805    -0.58700
H890        H  0.27067483  0.30068245  0.09297561     0.15900
O891        O  0.25901293  0.40338851  0.14046897    -0.60100
H892        H  0.24679826  0.35959832  0.17668336     0.14400
H893        H  0.20690830  0.30362074  0.22238158     0.46200
H894        H  0.24899702  0.25339795  0.11693469     0.41600
H895        H  0.26816017  0.40927254  0.15043027     0.45100
H896        H  0.26543580  0.23138672  0.18215857     0.36500
C897        C  0.17490203  0.15125479  0.14486788    -0.27700
C898        C  0.17690864  0.11595184  0.13624445     0.01900
C899        C  0.18051898  0.09058222  0.15782753     0.30000
C900        C  0.18260319  0.10098207  0.18706563    -0.19500
C901        C  0.18140470  0.13664607  0.19536206    -0.28900
C902        C  0.17721634  0.16175479  0.17392175     0.44000
C903        C  0.17735295  0.10733227  0.10435853     0.05200
O904        O  0.18343092  0.05627084  0.15013767    -0.57400
H905        H  0.18596420  0.08121787  0.20294294     0.18100
O906        O  0.17595376  0.19694290  0.18068737    -0.64100
H907        H  0.17210630  0.17117715  0.12866122     0.16600
C908        C  0.17044328  0.07744720  0.09234341     0.28800
C909        C  0.17287953  0.06797390  0.06298611    -0.25000
C910        C  0.18159772  0.08897187  0.04491284    -0.24300
C911        C  0.18764787  0.12008717  0.05637562     0.40300
C912        C  0.18566787  0.12874428  0.08583718    -0.26800
O913        O  0.16137322  0.05728060  0.10903622    -0.58700
H914        H  0.16794099  0.04427401  0.05430389     0.15900
O915        O  0.19647743  0.14079161  0.03956163    -0.60100
H916        H  0.19114087  0.15172590  0.09450175     0.14400
H917        H  0.16604472  0.19977519  0.18803979     0.46200
H918        H  0.15193151  0.06917936  0.10751242     0.41600
H919        H  0.19034101  0.16043637  0.03235106     0.45100
H920        H  0.17572850  0.04189646  0.15917662     0.36500
C921        C  0.06613446  0.08554112  0.14685818    -0.27700
C922        C  0.05999493  0.11734583  0.13678638     0.01900
C923        C  0.05233889  0.13866073  0.15658381     0.30000
C924        C  0.05081013  0.12794576  0.18576294    -0.19500
C925        C  0.05662203  0.09582159  0.19569211    -0.28900
C926        C  0.06449053  0.07469319  0.17610553     0.44000
C927        C  0.06031583  0.12631444  0.10509814     0.05200
O928        O  0.04529207  0.16845908  0.14703269    -0.57400
H929        H  0.04445183  0.14413818  0.20036732     0.18100
O930        O  0.07044953  0.04331746  0.18518344    -0.64100
H931        H  0.07199363  0.06879018  0.13183515     0.16600
C932        C  0.06470763  0.15988584  0.09507846     0.28800
C933        C  0.06292990  0.16915527  0.06549016    -0.25000
C934        C  0.05715199  0.14494024  0.04533699    -0.24300
C935        C  0.05349119  0.11068652  0.05518239     0.40300
C936        C  0.05511121  0.10166298  0.08478890    -0.26800
O937        O  0.07049568  0.18403213  0.11411926    -0.58700
H938        H  0.06593572  0.19547611  0.05835328     0.15900
O939        O  0.04764480  0.08632352  0.03638748    -0.60100
H940        H  0.05165639  0.07576390  0.09214239     0.14400
H941        H  0.08012274  0.04959804  0.19254854     0.46200
H942        H  0.08088312  0.17862588  0.11464219     0.41600
H943        H  0.03713119  0.08883936  0.03861598     0.45100
H944        H  0.05024388  0.18857180  0.15660655     0.36500
C945        C  0.10120755  0.13087153  0.33460475    -0.27700
C946        C  0.11258757  0.11117448  0.32314515     0.01900
C947        C  0.10964151  0.07916236  0.30858929     0.30000
C948        C  0.09547619  0.06838118  0.30410693    -0.19500
C949        C  0.08396227  0.08920389  0.31378270    -0.28900
C950        C  0.08701405  0.12005329  0.33032915     0.44000
C951        C  0.12735277  0.12560535  0.32360726     0.05200
O952        O  0.12051995  0.05913935  0.29716412    -0.57400
H953        H  0.09354191  0.04453645  0.29159996     0.18100
O954        O  0.07626274  0.14091766  0.34122488    -0.64100
H955        H  0.10332657  0.15534486  0.34614213     0.16600
C956        C  0.13049887  0.15776044  0.30934018     0.28800
C957        C  0.14474177  0.16781698  0.30490320    -0.25000
C958        C  0.15610764  0.14611926  0.31437549    -0.24300
C959        C  0.15286975  0.11543274  0.33101567     0.40300
C960        C  0.13860664  0.10534585  0.33525604    -0.26800
O961        O  0.11974616  0.17851316  0.29801330    -0.58700
H962        H  0.14682885  0.19172166  0.29247048     0.15900
O963        O  0.16348833  0.09390506  0.34185192    -0.60100
H964        H  0.13632744  0.08081526  0.34668224     0.14400
H965        H  0.07362485  0.12993263  0.36024496     0.46200
H966        H  0.11817511  0.16976179  0.27775463     0.41600
H967        H  0.16619013  0.10433900  0.36104037     0.45100
H968        H  0.12264243  0.06991732  0.27777816     0.36500
C969        C  0.98176062  0.18921980  0.43166014    -0.27700
C970        C  0.99677422  0.18976049  0.43361032     0.01900
C971        C  0.00332295  0.21273444  0.45384992     0.30000
C972        C  0.99490512  0.23435829  0.47181137    -0.19500
C973        C  0.97982857  0.23337863  0.47036422    -0.28900
C974        C  0.97330559  0.21045517  0.44992023     0.44000
C975        C  0.00539945  0.16723199  0.41358228     0.05200
O976        O  0.01794913  0.21403919  0.45645181    -0.57400
H977        H  0.00026307  0.25150061  0.48736549     0.18100
O978        O  0.95870254  0.20936386  0.44686959    -0.64100
H979        H  0.97653378  0.17248466  0.41562424     0.16600
C980        C  0.00284231  0.13063354  0.41123854     0.28800
C981        C  0.00987764  0.11067361  0.38974021    -0.25000
C982        C  0.01943044  0.12672516  0.36996607    -0.24300
C983        C  0.02266010  0.16304274  0.37371056     0.40300
C984        C  0.01563757  0.18285043  0.39522730    -0.26800
O985        O  0.99345901  0.11416914  0.42991238    -0.58700
H986        H  0.00729368  0.08286336  0.38773918     0.15900
O987        O  0.03203755  0.18013904  0.35543540    -0.60100
H988        H  0.01775212  0.21096165  0.39669171     0.14400
H989        H  0.95566996  0.18766128  0.45742987     0.46200
H990        H  0.98479239  0.10931006  0.41794717     0.41600
H991        H  0.04168475  0.17464852  0.36341296     0.45100
H992        H  0.02035228  0.19728163  0.47253486     0.36500
C993        C  0.85232362  0.37213642  0.58839563    -0.27700
C994        C  0.86291971  0.37706847  0.56710915     0.01900
C995        C  0.86014841  0.39943687  0.54301238     0.30000
C996        C  0.84669240  0.41533166  0.53965703    -0.19500
C997        C  0.83570996  0.40886282  0.55995438    -0.28900
C998        C  0.83877442  0.38774895  0.58494465     0.44000
C999        C  0.87670921  0.35786530  0.56900732     0.05200
O1000       O  0.87031127  0.40427972  0.52172758    -0.57400
H1001       H  0.84458658  0.43083334  0.52005504     0.18100
O1002       O  0.82840838  0.38074837  0.60539055    -0.64100
H1003       H  0.85439585  0.35513893  0.60714058     0.16600
C1004       C  0.88824224  0.37181721  0.58502277     0.28800
C1005       C  0.90202337  0.35793718  0.58118391    -0.25000
C1006       C  0.90456397  0.32993363  0.56141438    -0.24300
C1007       C  0.89266299  0.31388596  0.54762420     0.40300
C1008       C  0.87889342  0.32797568  0.55144781    -0.26800
O1009       O  0.88637159  0.40087048  0.60255623    -0.58700
H1010       H  0.91086804  0.37066294  0.59238472     0.15900
O1011       O  0.89441513  0.28588536  0.52891677    -0.60100
H1012       H  0.87000528  0.31680292  0.53926898     0.14400
H1013       H  0.82849647  0.40139404  0.61875120     0.46200
H1014       H  0.88231908  0.39151910  0.62111274     0.41600
H1015       H  0.89467616  0.29644106  0.50895670     0.45100
H1016       H  0.87519886  0.42666302  0.52697761     0.36500
C1017       C  0.94080826  0.39355724  0.34432358    -0.27700
C1018       C  0.92887331  0.37250798  0.35083423     0.01900
C1019       C  0.91970128  0.36207540  0.32771741     0.30000
C1020       C  0.92261658  0.37276519  0.29865326    -0.19500
C1021       C  0.93453180  0.39410807  0.29239456    -0.28900
C1022       C  0.94368945  0.40422319  0.31557635     0.44000
C1023       C  0.92666792  0.36140555  0.38192545     0.05200
O1024       O  0.90753734  0.34303969  0.33354700    -0.57400
H1025       H  0.91540292  0.36502932  0.28113581     0.18100
O1026       O  0.95566850  0.42422982  0.31033325    -0.64100
H1027       H  0.94809381  0.40141686  0.36168839     0.16600
C1028       C  0.92695504  0.32549989  0.39017415     0.28800
C1029       C  0.92807079  0.31606224  0.41995472    -0.25000
C1030       C  0.92886724  0.34196132  0.44210697    -0.24300
C1031       C  0.92743267  0.37785751  0.43381498     0.40300
C1032       C  0.92645712  0.38722409  0.40404301    -0.26800
O1033       O  0.92758677  0.29955927  0.36923508    -0.58700
H1034       H  0.92904155  0.28828294  0.42553017     0.15900
O1035       O  0.92809425  0.40428454  0.45430876    -0.60100
H1036       H  0.92622172  0.41499847  0.39809405     0.14400
H1037       H  0.96305092  0.40720992  0.30365851     0.46200
H1038       H  0.91820511  0.28735876  0.37014838     0.41600
H1039       H  0.91803669  0.40829630  0.46035032     0.45100
H1040       H  0.90892606  0.31983217  0.32387454     0.36500
C1041       C  0.99669126  0.21069821  0.28975807    -0.27700
C1042       C  0.99723591  0.22805993  0.26248636     0.01900
C1043       C  0.00006302  0.20813469  0.23701747     0.30000
C1044       C  0.00323965  0.17212607  0.23933996    -0.19500
C1045       C  0.00324700  0.15513008  0.26674187    -0.28900
C1046       C  0.99941844  0.17441083  0.29192828     0.44000
C1047       C  0.99414151  0.26647772  0.26035881     0.05200
O1048       O  0.00014215  0.22376662  0.20979644    -0.57400
H1049       H  0.00642329  0.15777764  0.21986160     0.18100
O1050       O  0.99982496  0.15893419  0.31917755    -0.64100
H1051       H  0.99458006  0.22550004  0.30960073     0.16600
C1052       C  0.98148757  0.28033347  0.27237974     0.28800
C1053       C  0.97713513  0.31446557  0.26496730    -0.25000
C1054       C  0.98494485  0.33491919  0.24474755    -0.24300
C1055       C  0.99848766  0.32292725  0.23571575     0.40300
C1056       C  0.00302062  0.28880840  0.24361383    -0.26800
O1057       O  0.97262230  0.25976435  0.28924162    -0.58700
H1058       H  0.96685743  0.32363736  0.27290977     0.15900
O1059       O  0.00664108  0.34252349  0.21672932    -0.60100
H1060       H  0.01305642  0.27892365  0.23505016     0.14400
H1061       H  0.98983688  0.15156806  0.32316525     0.46200
H1062       H  0.96609205  0.24797382  0.27512718     0.41600
H1063       H  0.01217016  0.35889289  0.22940204     0.45100
H1064       H  0.98994507  0.22500805  0.20373243     0.36500
C1065       C  0.99210837  0.26942063  0.05213143    -0.27700
C1066       C  0.99512497  0.30578883  0.05278326     0.01900
C1067       C  0.00581428  0.31922361  0.03398527     0.30000
C1068       C  0.01362551  0.29631540  0.01594289    -0.19500
C1069       C  0.01070834  0.25988651  0.01554525    -0.28900
C1070       C  0.99966353  0.24662620  0.03353643     0.44000
C1071       C  0.98813066  0.32863293  0.07518631     0.05200
O1072       O  0.00873200  0.35475282  0.03310187    -0.57400
H1073       H  0.02180617  0.30721406  0.00175477     0.18100
O1074       O  0.99663995  0.21113628  0.03421235    -0.64100
H1075       H  0.98413926  0.25839878  0.06674289     0.16600
C1076       C  0.97316662  0.32858906  0.07960835     0.28800
C1077       C  0.96719334  0.34723427  0.10328080    -0.25000
C1078       C  0.97592740  0.36681348  0.12243869    -0.24300
C1079       C  0.99084618  0.36751640  0.11741881     0.40300
C1080       C  0.99676727  0.34867404  0.09406569    -0.26800
O1081       O  0.96430453  0.31011856  0.06114054    -0.58700
H1082       H  0.95573135  0.34630886  0.10672124     0.15900
O1083       O  0.99989091  0.38510074  0.13614380    -0.60100
H1084       H  0.00829476  0.34852886  0.09150678     0.14400
H1085       H  0.98802156  0.20829051  0.02165483     0.46200
H1086       H  0.96257588  0.32615542  0.04420545     0.41600
H1087       H  0.00283449  0.36726443  0.15102447     0.45100
H1088       H  0.00167957  0.36484730  0.01904462     0.36500
C1089       C  0.82059969  0.37546080  0.33203762    -0.27700
C1090       C  0.81265047  0.35898251  0.35441039     0.01900
C1091       C  0.80270993  0.33253250  0.34675466     0.30000
C1092       C  0.80093355  0.32285558  0.31734824    -0.19500
C1093       C  0.80871358  0.33959674  0.29493988    -0.28900
C1094       C  0.81866197  0.36605708  0.30250743     0.44000
C1095       C  0.81367876  0.37195990  0.38515737     0.05200
O1096       O  0.79383882  0.31809872  0.36754422    -0.57400
H1097       H  0.79296120  0.30307911  0.31196351     0.18100
O1098       O  0.82643128  0.38312718  0.28127800    -0.64100
H1099       H  0.82819242  0.39609091  0.33746686     0.16600
C1100       C  0.81534710  0.34865668  0.40919902     0.28800
C1101       C  0.81396553  0.36123597  0.43797945    -0.25000
C1102       C  0.81119213  0.39720602  0.44344971    -0.24300
C1103       C  0.81072281  0.42086666  0.41929879     0.40300
C1104       C  0.81196145  0.40815120  0.39061442    -0.26800
O1105       O  0.81795943  0.31336166  0.40484723    -0.58700
H1106       H  0.81458622  0.34248797  0.45597860     0.15900
O1107       O  0.80871471  0.45646368  0.42329425    -0.60100
H1108       H  0.81087630  0.42659449  0.37247279     0.14400
H1109       H  0.83524128  0.36876948  0.27891658     0.46200
H1110       H  0.82823972  0.31184803  0.39966195     0.41600
H1111       H  0.79852645  0.46080222  0.41822396     0.45100
H1112       H  0.79655029  0.29275545  0.36887121     0.36500
C1113       C  0.88854950  0.37919738  0.15140497    -0.27700
C1114       C  0.87913082  0.38040259  0.17538885     0.01900
C1115       C  0.88333254  0.39910258  0.20070375     0.30000
C1116       C  0.89700069  0.41406636  0.20262351    -0.19500
C1117       C  0.90686478  0.41066535  0.17961884    -0.28900
C1118       C  0.90234526  0.39409928  0.15339843     0.44000
C1119       C  0.86520891  0.36104340  0.17491812     0.05200
O1120       O  0.87431189  0.40172807  0.22427800    -0.57400
H1121       H  0.90018025  0.42649112  0.22303383     0.18100
O1122       O  0.91147960  0.39125776  0.13002585    -0.64100
H1123       H  0.88544034  0.36541897  0.13157030     0.16600
C1124       C  0.85434801  0.36935010  0.15452052     0.28800
C1125       C  0.84057939  0.35493075  0.15785971    -0.25000
C1126       C  0.83741484  0.33148425  0.18108765    -0.24300
C1127       C  0.84866022  0.32109454  0.20007309     0.40300
C1128       C  0.86235336  0.33582236  0.19686526    -0.26800
O1129       O  0.85675166  0.39363258  0.13266457    -0.58700
H1130       H  0.83217747  0.36339459  0.14293594     0.15900
O1131       O  0.84622556  0.29833812  0.22303209    -0.60100
H1132       H  0.87066166  0.32864639  0.21246420     0.14400
H1133       H  0.90867088  0.41063572  0.11643340     0.46200
H1134       H  0.85819746  0.37944507  0.11463398     0.41600
H1135       H  0.84398132  0.31369696  0.24001932     0.45100
H1136       H  0.86861884  0.42347151  0.22062855     0.36500
C1137       C  0.44993507  0.65072447  0.61161151    -0.27700
C1138       C  0.46238608  0.63002119  0.60994185     0.01900
C1139       C  0.47437133  0.64356712  0.59500462     0.30000
C1140       C  0.47360574  0.67690003  0.58135897    -0.19500
C1141       C  0.46097604  0.69726110  0.58229272    -0.28900
C1142       C  0.44914280  0.68393800  0.59795574     0.44000
C1143       C  0.46241155  0.59400456  0.62320103     0.05200
O1144       O  0.48652040  0.62346933  0.59200021    -0.57400
H1145       H  0.48276784  0.68618294  0.56903527     0.18100
O1146       O  0.43679150  0.70333595  0.60040761    -0.64100
H1147       H  0.44069442  0.64089448  0.62339096     0.16600
C1148       C  0.47235581  0.58427270  0.64515488     0.28800
C1149       C  0.47153063  0.55082003  0.65844149    -0.25000
C1150       C  0.46061045  0.52698123  0.65079684    -0.24300
C1151       C  0.45073270  0.53660412  0.62874885     0.40300
C1152       C  0.45177034  0.56970413  0.61494462    -0.26800
O1153       O  0.48254293  0.60772911  0.65466983    -0.58700
H1154       H  0.47902588  0.54416265  0.67583369     0.15900
O1155       O  0.44017179  0.51360037  0.62023438    -0.60100
H1156       H  0.44407504  0.57669449  0.59802260     0.14400
H1157       H  0.43019136  0.69353582  0.58539304     0.46200
H1158       H  0.47752547  0.62342651  0.66869161     0.41600
H1159       H  0.43141938  0.52168843  0.63049792     0.45100
H1160       H  0.49391937  0.63536546  0.60409633     0.36500
C1161       C  0.30126471  0.07845336  0.60467091    -0.27700
C1162       C  0.28850925  0.09041921  0.61730256     0.01900
C1163       C  0.27613575  0.06937484  0.61521455     0.30000
C1164       C  0.27644200  0.03779317  0.59933847    -0.19500
C1165       C  0.28905084  0.02640691  0.58547684    -0.28900
C1166       C  0.30167848  0.04667326  0.58912690     0.44000
C1167       C  0.28806840  0.12567051  0.63130411     0.05200
O1168       O  0.26359536  0.07984370  0.62812093    -0.57400
H1169       H  0.26664276  0.02269708  0.59730358     0.18100
O1170       O  0.31437559  0.03665888  0.57659356    -0.64100
H1171       H  0.31087343  0.09439454  0.60603452     0.16600
C1172       C  0.29772200  0.13467687  0.65384197     0.28800
C1173       C  0.29709884  0.16825627  0.66658269    -0.25000
C1174       C  0.28692884  0.19334322  0.65715773    -0.24300
C1175       C  0.27746944  0.18449485  0.63415164     0.40300
C1176       C  0.27809489  0.15090391  0.62143862    -0.26800
O1177       O  0.30728141  0.11020465  0.66457512    -0.58700
H1178       H  0.30432605  0.17425470  0.68455101     0.15900
O1179       O  0.26756396  0.20838544  0.62391674    -0.60100
H1180       H  0.27080138  0.14456021  0.60366669     0.14400
H1181       H  0.31941228  0.02268363  0.59194045     0.46200
H1182       H  0.31676760  0.11777396  0.65715442     0.41600
H1183       H  0.27281447  0.22339125  0.60967735     0.45100
H1184       H  0.26378989  0.06906714  0.64800254     0.36500
C1185       C  0.23950005  0.03010687  0.45681317    -0.27700
C1186       C  0.24613207  0.04777946  0.43346285     0.01900
C1187       C  0.26102372  0.04436378  0.42973536     0.30000
C1188       C  0.26906539  0.02318498  0.44902270    -0.19500
C1189       C  0.26243017  0.00483478  0.47212963    -0.28900
C1190       C  0.24751197  0.00900691  0.47618921     0.44000
C1191       C  0.23743098  0.06881010  0.41241894     0.05200
O1192       O  0.26777100  0.06111194  0.40691235    -0.57400
H1193       H  0.28047697  0.02051128  0.44548069     0.18100
O1194       O  0.24063837  0.99283723  0.49915364    -0.64100
H1195       H  0.22806455  0.03277890  0.46006146     0.16600
C1196       C  0.22764101  0.05218970  0.39347385     0.28800
C1197       C  0.22045454  0.07192525  0.37185444    -0.25000
C1198       C  0.22281475  0.10855263  0.36865752    -0.24300
C1199       C  0.23236214  0.12526713  0.38846857     0.40300
C1200       C  0.23949895  0.10540582  0.41010803    -0.26800
O1201       O  0.22575576  0.01623822  0.39465707    -0.58700
H1202       H  0.21340638  0.05811179  0.35684779     0.15900
O1203       O  0.23518474  0.16077891  0.38643464    -0.60100
H1204       H  0.24698911  0.11849758  0.42467964     0.14400
H1205       H  0.24128439  0.00983369  0.51565267     0.46200
H1206       H  0.21684087  0.01268180  0.40602313     0.41600
H1207       H  0.24404305  0.16254131  0.37457501     0.45100
H1208       H  0.26713395  0.04442797  0.39020175     0.36500
C1209       C  0.39282433  0.87680696  0.57466538    -0.27700
C1210       C  0.38120572  0.86020249  0.56116947     0.01900
C1211       C  0.38329552  0.82804288  0.54636808     0.30000
C1212       C  0.39704440  0.81342791  0.54429499    -0.19500
C1213       C  0.40890959  0.83048242  0.55697873    -0.28900
C1214       C  0.40655630  0.86218689  0.57294628     0.44000
C1215       C  0.36700723  0.87732723  0.56125898     0.05200
O1216       O  0.37209244  0.81194803  0.53219964    -0.57400
H1217       H  0.39848103  0.78956979  0.53154208     0.18100
O1218       O  0.41767267  0.88036032  0.58559866    -0.64100
H1219       H  0.39128457  0.90161939  0.58608204     0.16600
C1220       C  0.35578643  0.86318775  0.57792544     0.28800
C1221       C  0.34192182  0.87656612  0.57459101    -0.25000
C1222       C  0.33893782  0.90390256  0.55435396    -0.24300
C1223       C  0.35045443  0.91938170  0.53887292     0.40300
C1224       C  0.36438101  0.90626282  0.54269145    -0.26800
O1225       O  0.35814837  0.83504108  0.59639507    -0.58700
H1226       H  0.33336852  0.86416851  0.58686660     0.15900
O1227       O  0.34818150  0.94593874  0.51878365    -0.60100
H1228       H  0.37302706  0.91740208  0.52985357     0.14400
H1229       H  0.41827531  0.87129553  0.60601913     0.46200
H1230       H  0.36025629  0.84568729  0.61580180     0.41600
H1231       H  0.34721772  0.93385414  0.49957709     0.45100
H1232       H  0.36818607  0.79480948  0.54660498     0.36500
C1233       C  0.46656951  0.14146486  0.08212852    -0.27700
C1234       C  0.45862995  0.13711088  0.10796641     0.01900
C1235       C  0.45104129  0.16616589  0.11943233     0.30000
C1236       C  0.45102170  0.19862740  0.10438008    -0.19500
C1237       C  0.45874325  0.20262518  0.07825354    -0.28900
C1238       C  0.46670164  0.17394487  0.06734273     0.44000
C1239       C  0.45834799  0.10196833  0.12247907     0.05200
O1240       O  0.44400547  0.16327922  0.14572089    -0.57400
H1241       H  0.44493427  0.22064111  0.11302681     0.18100
O1242       O  0.47384105  0.17673841  0.04116945    -0.64100
H1243       H  0.47241350  0.11931691  0.07302004     0.16600
C1244       C  0.44543709  0.08333828  0.12638584     0.28800
C1245       C  0.44552564  0.04999337  0.13995409    -0.25000
C1246       C  0.45841950  0.03444569  0.14959246    -0.24300
C1247       C  0.47136323  0.05316825  0.14522107     0.40300
C1248       C  0.47122969  0.08636294  0.13157200    -0.26800
O1249       O  0.43266938  0.09741258  0.11697237    -0.58700
H1250       H  0.43545008  0.03634796  0.14303793     0.15900
O1251       O  0.48422421  0.03980917  0.15481212    -0.60100
H1252       H  0.48124202  0.10034307  0.12856327     0.14400
H1253       H  0.48382381  0.18289394  0.04655565     0.46200
H1254       H  0.43262634  0.09440948  0.09534655     0.41600
H1255       H  0.48530372  0.04844558  0.17525340     0.45100
H1256       H  0.43366987  0.16414210  0.14075514     0.36500
C1257       C  0.43815429  0.90675231  0.34615153    -0.27700
C1258       C  0.43255223  0.87310176  0.35192175     0.01900
C1259       C  0.42778118  0.85213212  0.32840984     0.30000
C1260       C  0.42955147  0.86389654  0.29943976    -0.19500
C1261       C  0.43604946  0.89666343  0.29338425    -0.28900
C1262       C  0.43993186  0.91864801  0.31722833     0.44000
C1263       C  0.43290657  0.85893139  0.38226567     0.05200
O1264       O  0.42129999  0.82018370  0.33365615    -0.57400
H1265       H  0.42611590  0.84688987  0.28167100     0.18100
O1266       O  0.44592136  0.95131117  0.31265171    -0.64100
H1267       H  0.44176157  0.92325279  0.36412298     0.16600
C1268       C  0.44147138  0.82935804  0.38911809     0.28800
C1269       C  0.44213318  0.81662545  0.41791396    -0.25000
C1270       C  0.43471251  0.83368406  0.44062246    -0.24300
C1271       C  0.42623579  0.86358317  0.43379148     0.40300
C1272       C  0.42538252  0.87595682  0.40476980    -0.26800
O1273       O  0.44970536  0.81354966  0.36800503    -0.58700
H1274       H  0.44904052  0.79425991  0.42268070     0.15900
O1275       O  0.41894878  0.88130763  0.45529838    -0.60100
H1276       H  0.41892900  0.89906865  0.39982694     0.14400
H1277       H  0.45641812  0.94735985  0.31339132     0.46200
H1278       H  0.45856022  0.82796938  0.36695796     0.41600
H1279       H  0.40999376  0.86770397  0.45821349     0.45100
H1280       H  0.42847347  0.80201414  0.32827729     0.36500
C1281       C  0.27176114  0.65407281  0.12429942    -0.27700
C1282       C  0.28247646  0.62904445  0.13064242     0.01900
C1283       C  0.29379941  0.63834199  0.14947858     0.30000
C1284       C  0.29444831  0.67226348  0.16130970    -0.19500
C1285       C  0.28381016  0.69761837  0.15501818    -0.28900
C1286       C  0.27235910  0.68819678  0.13634437     0.44000
C1287       C  0.28242677  0.59405042  0.11616036     0.05200
O1288       O  0.30431093  0.61434749  0.15651172    -0.57400
H1289       H  0.30322566  0.67842640  0.17604492     0.18100
O1290       O  0.26180324  0.71209609  0.12948145    -0.64100
H1291       H  0.26307887  0.64735842  0.10950536     0.16600
C1292       C  0.27116110  0.56982567  0.11996155     0.28800
C1293       C  0.27156707  0.53690863  0.10577101    -0.25000
C1294       C  0.28313987  0.52771052  0.08759805    -0.24300
C1295       C  0.29449175  0.55218134  0.08423921     0.40300
C1296       C  0.29401357  0.58485087  0.09837122    -0.26800
O1297       O  0.25993626  0.57771592  0.13812427    -0.58700
H1298       H  0.26274080  0.51872081  0.10879769     0.15900
O1299       O  0.30579181  0.54541172  0.06594097    -0.60100
H1300       H  0.30269057  0.60343302  0.09504740     0.14400
H1301       H  0.26523127  0.72448243  0.11161807     0.46200
H1302       H  0.25207318  0.58545548  0.12488188     0.41600
H1303       H  0.31357865  0.53671374  0.07895895     0.45100
H1304       H  0.30043106  0.60050453  0.17321110     0.36500
C1305       C  0.24250402  0.94951595  0.23529115    -0.27700
C1306       C  0.25168873  0.97496954  0.24764375     0.01900
C1307       C  0.26577379  0.96567184  0.25482704     0.30000
C1308       C  0.27062934  0.93166381  0.24935862    -0.19500
C1309       C  0.26184144  0.90630928  0.23547406    -0.28900
C1310       C  0.24751115  0.91530199  0.22905507     0.44000
C1311       C  0.24687830  0.01165402  0.25224218     0.05200
O1312       O  0.27513383  0.99020702  0.26597269    -0.57400
H1313       H  0.28170896  0.92599543  0.25470011     0.18100
O1314       O  0.23853021  0.89164418  0.21563586    -0.64100
H1315       H  0.23153997  0.95643479  0.22994023     0.16600
C1316       C  0.24204589  0.03242921  0.22854570     0.28800
C1317       C  0.23739875  0.06701287  0.23347179    -0.25000
C1318       C  0.23765642  0.08129878  0.26183702    -0.24300
C1319       C  0.24337765  0.06131108  0.28522767     0.40300
C1320       C  0.24782301  0.02656963  0.28036431    -0.26800
O1321       O  0.24192595  0.01918936  0.20054395    -0.58700
H1322       H  0.23289722  0.08211921  0.21538732     0.15900
O1323       O  0.24325990  0.07409716  0.31337964    -0.60100
H1324       H  0.25164044  0.01084826  0.29874260     0.14400
H1325       H  0.23355460  0.87932344  0.23191445     0.46200
H1326       H  0.23183798  0.01245166  0.19667951     0.41600
H1327       H  0.25255089  0.08642234  0.31581858     0.45100
H1328       H  0.27916242  0.00246105  0.24857769     0.36500
C1329       C  0.25857290  0.93238976  0.10787216    -0.27700
C1330       C  0.25399736  0.91680312  0.08154321     0.01900
C1331       C  0.25745594  0.88101504  0.07638376     0.30000
C1332       C  0.26502631  0.86128207  0.09771629    -0.19500
C1333       C  0.26950444  0.87686953  0.12422999    -0.28900
C1334       C  0.26623060  0.91289747  0.12900235     0.44000
C1335       C  0.24571989  0.93841583  0.05976103     0.05200
O1336       O  0.25394825  0.86554951  0.05010970    -0.57400
H1337       H  0.26738327  0.83369915  0.09352125     0.18100
O1338       O  0.26960620  0.92878931  0.15514964    -0.64100
H1339       H  0.25592284  0.95974635  0.11237236     0.16600
C1340       C  0.23192602  0.92837569  0.05029604     0.28800
C1341       C  0.22440624  0.94923418  0.02981434    -0.25000
C1342       C  0.23028806  0.98074830  0.01850747    -0.24300
C1343       C  0.24392595  0.99135585  0.02887183     0.40300
C1344       C  0.25147274  0.97026440  0.04914524    -0.26800
O1345       O  0.22558029  0.89844003  0.06122214    -0.58700
H1346       H  0.21391525  0.94050113  0.02270223     0.15900
O1347       O  0.25007051  0.02224097  0.01936399    -0.60100
H1348       H  0.26195329  0.97877992  0.05652826     0.14400
H1349       H  0.27902704  0.94015726  0.15186726     0.46200
H1350       H  0.22067557  0.90610446  0.07939689     0.41600
H1351       H  0.24693920  0.04046968  0.03357980     0.45100
H1352       H  0.24625302  0.84838499  0.05470240     0.36500
C1353       C  0.32282062  0.87200880  0.32857407    -0.27700
C1354       C  0.31661638  0.85239227  0.35154558     0.01900
C1355       C  0.30875093  0.82178048  0.34466080     0.30000
C1356       C  0.30674129  0.81203959  0.31535502    -0.19500
C1357       C  0.31238827  0.83239390  0.29219939    -0.28900
C1358       C  0.32082099  0.86218308  0.29912930     0.44000
C1359       C  0.31663848  0.86656763  0.38198714     0.05200
O1360       O  0.30184921  0.80304707  0.36623028    -0.57400
H1361       H  0.30010468  0.78920083  0.31082192     0.18100
O1362       O  0.32679145  0.88253969  0.27743019    -0.64100
H1363       H  0.32889276  0.89567263  0.33348662     0.16600
C1364       C  0.32056150  0.84569034  0.40645153     0.28800
C1365       C  0.31821900  0.85820732  0.43501039    -0.25000
C1366       C  0.31217226  0.89183292  0.43982026    -0.24300
C1367       C  0.30909295  0.91345143  0.41514277     0.40300
C1368       C  0.31136316  0.90077311  0.38672577    -0.26800
O1369       O  0.32641459  0.81273650  0.40271835    -0.58700
H1370       H  0.32089605  0.84117837  0.45340812     0.15900
O1371       O  0.30347972  0.94675478  0.41832557    -0.60100
H1372       H  0.30833239  0.91727811  0.36821288     0.14400
H1373       H  0.33559459  0.86974201  0.27154087     0.46200
H1374       H  0.33685319  0.81681183  0.40082136     0.41600
H1375       H  0.29295335  0.94368843  0.41687083     0.45100
H1376       H  0.30696023  0.78007148  0.36757247     0.36500
C1377       C  0.38241174  0.90039878  0.19139354    -0.27700
C1378       C  0.38016502  0.86979478  0.17464197     0.01900
C1379       C  0.39168540  0.85504121  0.15927524     0.30000
C1380       C  0.40533864  0.87012372  0.16151205    -0.19500
C1381       C  0.40791731  0.89971825  0.17958866    -0.28900
C1382       C  0.39612290  0.91544266  0.19392520     0.44000
C1383       C  0.36598187  0.85218416  0.17484112     0.05200
O1384       O  0.38979558  0.82512915  0.14276605    -0.57400
H1385       H  0.41408497  0.85738584  0.15010923     0.18100
O1386       O  0.39798624  0.94389452  0.21212292    -0.64100
H1387       H  0.37358288  0.91194196  0.20339989     0.16600
C1388       C  0.36255003  0.82742713  0.19682699     0.28800
C1389       C  0.34872723  0.81300448  0.19823695    -0.25000
C1390       C  0.33803140  0.82330939  0.17808055    -0.24300
C1391       C  0.34181219  0.84663230  0.15500239     0.40300
C1392       C  0.35569732  0.86075737  0.15351429    -0.26800
O1393       O  0.37257514  0.81776728  0.21743990    -0.58700
H1394       H  0.34616658  0.79536219  0.21625187     0.15900
O1395       O  0.33197309  0.85608208  0.13393782    -0.60100
H1396       H  0.35831844  0.87925932  0.13613461     0.14400
H1397       H  0.39537942  0.96484209  0.20006406     0.46200
H1398       H  0.37116368  0.83431365  0.23403132     0.41600
H1399       H  0.32879048  0.88024398  0.13929793     0.45100
H1400       H  0.39210481  0.80517280  0.15617447     0.36500
C1401       C  0.48982508  0.77279466  0.03595334    -0.27700
C1402       C  0.49721857  0.79584408  0.05467430     0.01900
C1403       C  0.51228964  0.79648437  0.05365652     0.30000
C1404       C  0.51969586  0.77437180  0.03410298    -0.19500
C1405       C  0.51231608  0.75141283  0.01501678    -0.28900
C1406       C  0.49716416  0.75083103  0.01629557     0.44000
C1407       C  0.48906797  0.81764387  0.07613916     0.05200
O1408       O  0.51988979  0.81750439  0.07261229    -0.57400
H1409       H  0.53128660  0.77518033  0.03402467     0.18100
O1410       O  0.48932142  0.72963439  0.99790901    -0.64100
H1411       H  0.47823389  0.77191591  0.03649525     0.16600
C1412       C  0.48973933  0.85486451  0.07604873     0.28800
C1413       C  0.48244107  0.87444622  0.09752441    -0.25000
C1414       C  0.47423868  0.85753543  0.11938183    -0.24300
C1415       C  0.47316600  0.82016301  0.11854277     0.40300
C1416       C  0.48045093  0.80077189  0.09704159    -0.26800
O1417       O  0.49760583  0.87236033  0.05521430    -0.58700
H1418       H  0.48350196  0.90297111  0.09740540     0.15900
O1419       O  0.46525016  0.80204173  0.13894166    -0.60100
H1420       H  0.47968427  0.77217340  0.09723536     0.14400
H1421       H  0.48652183  0.70894790  0.01002676     0.46200
H1422       H  0.49072817  0.87790523  0.03919848     0.41600
H1423       H  0.47230960  0.79244425  0.15321447     0.45100
H1424       H  0.52368326  0.83708335  0.06038143     0.36500
C1425       C  0.47950603  0.45916700  0.96215181    -0.27700
C1426       C  0.49244480  0.46955157  0.97497781     0.01900
C1427       C  0.50080799  0.44444023  0.99029491     0.30000
C1428       C  0.49529004  0.41076260  0.99589474    -0.19500
C1429       C  0.48156290  0.40171016  0.98589075    -0.28900
C1430       C  0.47416869  0.42533556  0.96693507     0.44000
C1431       C  0.49648482  0.50719084  0.97439289     0.05200
O1432       O  0.51397651  0.45329222  0.00147611    -0.57400
H1433       H  0.50126720  0.39288832  0.00998545     0.18100
O1434       O  0.46105848  0.41693380  0.95516708    -0.64100
H1435       H  0.47304807  0.47799508  0.94992100     0.16600
C1436       C  0.49659792  0.52647651  0.94791945     0.28800
C1437       C  0.50065666  0.56189581  0.94804419    -0.25000
C1438       C  0.50537122  0.57788915  0.97407014    -0.24300
C1439       C  0.50493113  0.55903138  0.00063279     0.40300
C1440       C  0.50009166  0.52414739  0.00079846    -0.26800
O1441       O  0.49365479  0.51042251  0.92162557    -0.58700
H1442       H  0.50142207  0.57585579  0.92728221     0.15900
O1443       O  0.50961611  0.57418174  0.02625710    -0.60100
H1444       H  0.49966403  0.50988790  0.02145163     0.14400
H1445       H  0.46319849  0.40270784  0.93746969     0.46200
H1446       H  0.50261795  0.49795996  0.91625970     0.41600
H1447       H  0.51943116  0.56480379  0.02940962     0.45100
H1448       H  0.52050912  0.45342584  0.98435925     0.36500
C1449       C  0.50339610  0.60020665  0.82963129    -0.27700
C1450       C  0.50406669  0.56302021  0.82985958     0.01900
C1451       C  0.51243980  0.54646040  0.85185339     0.30000
C1452       C  0.51989268  0.56673794  0.87273644    -0.19500
C1453       C  0.51907851  0.60399583  0.87291599    -0.28900
C1454       C  0.51057816  0.62054610  0.85097521     0.44000
C1455       C  0.49597400  0.54162762  0.80743985     0.05200
O1456       O  0.51317558  0.51027688  0.85368233    -0.57400
H1457       H  0.52596562  0.55294803  0.88955136     0.18100
O1458       O  0.50906478  0.65661947  0.85018082    -0.64100
H1459       H  0.49719363  0.61370365  0.81285988     0.16600
C1460       C  0.48126409  0.54728826  0.80182831     0.28800
C1461       C  0.47383892  0.52596872  0.78154923    -0.25000
C1462       C  0.48078675  0.49881505  0.76599468    -0.24300
C1463       C  0.49561325  0.49369338  0.77121172     0.40300
C1464       C  0.50297072  0.51475064  0.79173365    -0.26800
O1465       O  0.47385960  0.57262300  0.81700906    -0.58700
H1466       H  0.46251189  0.53070171  0.77817602     0.15900
O1467       O  0.50312298  0.46823987  0.75638459    -0.60100
H1468       H  0.51430808  0.51021004  0.79517236     0.14400
H1469       H  0.49999348  0.66152981  0.86067909     0.46200
H1470       H  0.47211426  0.59199702  0.80266375     0.41600
H1471       H  0.50734352  0.48065453  0.73925493     0.45100
H1472       H  0.50382263  0.50272995  0.86181051     0.36500
C1473       C  0.64027683  0.62124740  0.90561769    -0.27700
C1474       C  0.62941687  0.60364839  0.92083805     0.01900
C1475       C  0.63280018  0.57324405  0.93732814     0.30000
C1476       C  0.64708197  0.56221664  0.94015773    -0.19500
C1477       C  0.65821861  0.58146815  0.92689607    -0.28900
C1478       C  0.65455850  0.61025114  0.90826251     0.44000
C1479       C  0.61502457  0.61979493  0.92291999     0.05200
O1480       O  0.62225640  0.55508943  0.95183646    -0.57400
H1481       H  0.64947385  0.53985006  0.95427785     0.18100
O1482       O  0.66488777  0.62922088  0.89383159    -0.64100
H1483       H  0.63775661  0.64461172  0.89274369     0.16600
C1484       C  0.61195066  0.64300022  0.94610880     0.28800
C1485       C  0.59801747  0.65578953  0.94995558    -0.25000
C1486       C  0.58684893  0.64514777  0.93120816    -0.24300
C1487       C  0.59013347  0.62319850  0.90704276     0.40300
C1488       C  0.60415099  0.61068002  0.90307626    -0.26800
O1489       O  0.62246089  0.65245332  0.96568103    -0.58700
H1490       H  0.59581477  0.67241385  0.96873387     0.15900
O1491       O  0.57965823  0.61283455  0.88773347    -0.60100
H1492       H  0.60644818  0.59300724  0.88502015     0.14400
H1493       H  0.66677461  0.61580605  0.87557895     0.46200
H1494       H  0.62151094  0.63566262  0.98233953     0.41600
H1495       H  0.57855790  0.63289217  0.87381140     0.45100
H1496       H  0.62236950  0.56448319  0.97214157     0.36500
C1497       C  0.75659194  0.46331830  0.03547960    -0.27700
C1498       C  0.74922181  0.43977744  0.05394675     0.01900
C1499       C  0.73412824  0.43876748  0.05221233     0.30000
C1500       C  0.72680011  0.45992760  0.03162025    -0.19500
C1501       C  0.73419003  0.48283177  0.01258274    -0.28900
C1502       C  0.74926718  0.48484434  0.01521201     0.44000
C1503       C  0.75739759  0.41731631  0.07539226     0.05200
O1504       O  0.72639961  0.41861555  0.07162406    -0.57400
H1505       H  0.71522087  0.45857550  0.03082600     0.18100
O1506       O  0.75706970  0.50698823  0.99755262    -0.64100
H1507       H  0.76816382  0.46482666  0.03654306     0.16600
C1508       C  0.75483243  0.38066961  0.07823783     0.28800
C1509       C  0.76180752  0.36095452  0.10020845    -0.25000
C1510       C  0.77178664  0.37677334  0.11935601    -0.24300
C1511       C  0.77530337  0.41274532  0.11462337     0.40300
C1512       C  0.76801333  0.43265246  0.09320022    -0.26800
O1513       O  0.74541164  0.36375479  0.05988577    -0.58700
H1514       H  0.75904674  0.33329524  0.10271994     0.15900
O1515       O  0.78525749  0.42945736  0.13187548    -0.60100
H1516       H  0.77040775  0.46057375  0.09109902     0.14400
H1517       H  0.75845337  0.52882124  0.00924093     0.46200
H1518       H  0.75046570  0.36164325  0.04086576     0.41600
H1519       H  0.79455917  0.42531225  0.12203454     0.45100
H1520       H  0.72119426  0.40102316  0.05950854     0.36500
C1521       C  0.49328628  0.77556913  0.24955267    -0.27700
C1522       C  0.49804416  0.75826533  0.22412256     0.01900
C1523       C  0.49890311  0.77747716  0.19757299     0.30000
C1524       C  0.49466922  0.81304678  0.19672163    -0.19500
C1525       C  0.48911068  0.82954390  0.22177093    -0.28900
C1526       C  0.48866060  0.81070656  0.24842677     0.44000
C1527       C  0.50176700  0.72009017  0.22585060     0.05200
O1528       O  0.50244111  0.76080390  0.17185695    -0.57400
H1529       H  0.49454155  0.82676446  0.17577918     0.18100
O1530       O  0.48291891  0.82574553  0.27308928    -0.64100
H1531       H  0.49272351  0.76140135  0.27023628     0.16600
C1532       C  0.51491743  0.70749533  0.21519445     0.28800
C1533       C  0.51889906  0.67249126  0.22026087    -0.25000
C1534       C  0.51051574  0.64997703  0.23794411    -0.24300
C1535       C  0.49683532  0.66153595  0.24653235     0.40300
C1536       C  0.49254845  0.69637256  0.24039601    -0.26800
O1537       O  0.52453570  0.72980381  0.20200331    -0.58700
H1538       H  0.52935938  0.66417516  0.21269623     0.15900
O1539       O  0.48807087  0.64024886  0.26293995    -0.60100
H1540       H  0.48225285  0.70542495  0.24827674     0.14400
H1541       H  0.49072230  0.84028085  0.28157676     0.46200
H1542       H  0.53123853  0.73701699  0.21782929     0.41600
H1543       H  0.48288423  0.62547116  0.24843797     0.45100
H1544       H  0.51113440  0.77297581  0.16454491     0.36500
C1545       C  0.48132349  0.68222862  0.42571671    -0.27700
C1546       C  0.49636398  0.68269012  0.42534196     0.01900
C1547       C  0.50374429  0.70339324  0.44602445     0.30000
C1548       C  0.49614103  0.72351795  0.46639731    -0.19500
C1549       C  0.48108300  0.72337972  0.46677619    -0.28900
C1550       C  0.47367390  0.70242234  0.44613216     0.44000
C1551       C  0.50427386  0.66228377  0.40284523     0.05200
O1552       O  0.51842256  0.70411107  0.44652365    -0.57400
H1553       H  0.50210706  0.73914571  0.48213185     0.18100
O1554       O  0.45899603  0.70205581  0.44521666    -0.64100
H1555       H  0.47548088  0.66677745  0.40967267     0.16600
C1556       C  0.50229951  0.62562718  0.39988897     0.28800
C1557       C  0.50948978  0.60713490  0.37781875    -0.25000
C1558       C  0.51862943  0.62466842  0.35799898    -0.24300
C1559       C  0.52091114  0.66135292  0.36164479     0.40300
C1560       C  0.51373331  0.67976540  0.38383838    -0.26800
O1561       O  0.49357328  0.60753390  0.41887256    -0.58700
H1562       H  0.50760798  0.57897159  0.37588894     0.15900
O1563       O  0.52957542  0.67991410  0.34289207    -0.60100
H1564       H  0.51530350  0.70805558  0.38577615     0.14400
H1565       H  0.45629972  0.72134500  0.43144493     0.46200
H1566       H  0.48470578  0.60256454  0.40756259     0.41600
H1567       H  0.53914763  0.67980337  0.35238892     0.45100
H1568       H  0.52128678  0.68467680  0.46001203     0.36500
C1569       C  0.48918152  0.45289352  0.19519366    -0.27700
C1570       C  0.49663568  0.43205985  0.17490856     0.01900
C1571       C  0.51173359  0.43127288  0.17644073     0.30000
C1572       C  0.51908651  0.45149853  0.19762205    -0.19500
C1573       C  0.51163395  0.47280818  0.21772339    -0.28900
C1574       C  0.49647234  0.47272189  0.21656133     0.44000
C1575       C  0.48853025  0.41210974  0.15185596     0.05200
O1576       O  0.51942452  0.41231483  0.15628415    -0.57400
H1577       H  0.53068247  0.45110153  0.19783185     0.18100
O1578       O  0.48858776  0.49185256  0.23628445    -0.64100
H1579       H  0.47758726  0.45362191  0.19458379     0.16600
C1580       C  0.48950993  0.37503703  0.14954014     0.28800
C1581       C  0.48229914  0.35711497  0.12687359    -0.25000
C1582       C  0.47371376  0.37539045  0.10625449    -0.24300
C1583       C  0.47230834  0.41248695  0.10939940     0.40300
C1584       C  0.47960338  0.43034976  0.13201810    -0.26800
O1585       O  0.49746587  0.35597381  0.16941674    -0.58700
H1586       H  0.48355422  0.32869692  0.12534639     0.15900
O1587       O  0.46412591  0.43185726  0.09011534    -0.60100
H1588       H  0.47855777  0.45882246  0.13362146     0.14400
H1589       H  0.48692081  0.47552051  0.25300999     0.46200
H1590       H  0.49077139  0.35031681  0.18561345     0.41600
H1591       H  0.47073178  0.43871636  0.07408769     0.45100
H1592       H  0.52321233  0.39155898  0.16719160     0.36500
C1593       C  0.55698139  0.64561292  0.09890468    -0.27700
C1594       C  0.56602334  0.61674711  0.10456761     0.01900
C1595       C  0.57220680  0.59865498  0.08071247     0.30000
C1596       C  0.56888181  0.60882488  0.05182553    -0.19500
C1597       C  0.55966542  0.63749770  0.04628388    -0.28900
C1598       C  0.55393131  0.65631054  0.07024483     0.44000
C1599       C  0.56727687  0.60350984  0.13517985     0.05200
O1600       O  0.58122812  0.57052465  0.08539979    -0.57400
H1601       H  0.57350472  0.59423532  0.03375402     0.18100
O1602       O  0.54448109  0.68368739  0.06597758    -0.64100
H1603       H  0.55166717  0.65908311  0.11675892     0.16600
C1604       C  0.56946085  0.62682728  0.15888077     0.28800
C1605       C  0.56748524  0.61493907  0.18772478    -0.25000
C1606       C  0.56326447  0.57993318  0.19345152    -0.24300
C1607       C  0.56237312  0.55591700  0.16979961     0.40300
C1608       C  0.56419966  0.56790043  0.14105664    -0.26800
O1609       O  0.57333377  0.66136988  0.15396496    -0.58700
H1610       H  0.56859483  0.63374672  0.20547799     0.15900
O1611       O  0.55885451  0.52109024  0.17418015    -0.60100
H1612       H  0.56233146  0.54958688  0.12321741     0.14400
H1613       H  0.55025226  0.70550579  0.06826933     0.46200
H1614       H  0.56512385  0.67590877  0.16064537     0.41600
H1615       H  0.56804985  0.50905564  0.17868191     0.45100
H1616       H  0.59102065  0.58045447  0.08397930     0.36500
C1617       C  0.68103233  0.65747839  0.13723274    -0.27700
C1618       C  0.67812021  0.62174909  0.13166638     0.01900
C1619       C  0.67569769  0.59877509  0.15561259     0.30000
C1620       C  0.67728874  0.61105882  0.18439271    -0.19500
C1621       C  0.68105104  0.64640832  0.18992431    -0.28900
C1622       C  0.68224136  0.67002272  0.16588961     0.44000
C1623       C  0.67932961  0.60828679  0.10116556     0.05200
O1624       O  0.67234590  0.56389218  0.15116355    -0.57400
H1625       H  0.67607857  0.59245627  0.20234993     0.18100
O1626       O  0.68544693  0.70507648  0.16988374    -0.64100
H1627       H  0.68316586  0.67558797  0.11932153     0.16600
C1628       C  0.67334558  0.62678205  0.07711085     0.28800
C1629       C  0.67644021  0.61617553  0.04839584    -0.25000
C1630       C  0.68533022  0.58695868  0.04309835    -0.24300
C1631       C  0.69067483  0.56732640  0.06719724     0.40300
C1632       C  0.68786141  0.57841791  0.09580580    -0.26800
O1633       O  0.66428830  0.65488264  0.08149635    -0.58700
H1634       H  0.67195172  0.63111310  0.03021160     0.15900
O1635       O  0.69942443  0.53858342  0.06316342    -0.60100
H1636       H  0.69288398  0.56430427  0.11384850     0.14400
H1637       H  0.67605739  0.71706027  0.17200102     0.46200
H1638       H  0.66934959  0.67589431  0.07359293     0.41600
H1639       H  0.69303613  0.51772754  0.06461590     0.45100
H1640       H  0.66184776  0.56355176  0.14787319     0.36500
C1641       C  0.60332600  0.61648752  0.32875163    -0.27700
C1642       C  0.61411111  0.60350368  0.31047301     0.01900
C1643       C  0.61111388  0.57477354  0.29191102     0.30000
C1644       C  0.59729979  0.56027188  0.29096462    -0.19500
C1645       C  0.58614444  0.57460679  0.30789110    -0.28900
C1646       C  0.58944264  0.60244369  0.32757652     0.44000
C1647       C  0.62808434  0.62196619  0.30907641     0.05200
O1648       O  0.62151633  0.56145372  0.27387538    -0.57400
H1649       H  0.59514112  0.53922881  0.27549348     0.18100
O1650       O  0.57901646  0.61770420  0.34447200    -0.64100
H1651       H  0.60552294  0.63866672  0.34307947     0.16600
C1652       C  0.63063415  0.64767531  0.28731965     0.28800
C1653       C  0.64416372  0.66349714  0.28490153    -0.25000
C1654       C  0.65540949  0.65393066  0.30397306    -0.24300
C1655       C  0.65252774  0.62931462  0.32678006     0.40300
C1656       C  0.63897563  0.61358035  0.32910661    -0.26800
O1657       O  0.62012963  0.65630648  0.26742620    -0.58700
H1658       H  0.64605354  0.68182489  0.26700560     0.15900
O1659       O  0.66304912  0.61918690  0.34616779    -0.60100
H1660       H  0.63707999  0.59406713  0.34613111     0.14400
H1661       H  0.57985375  0.60605838  0.36394013     0.46200
H1662       H  0.61434073  0.67485660  0.27714724     0.41600
H1663       H  0.66175286  0.63456305  0.36354485     0.45100
H1664       H  0.62044408  0.57463984  0.25512652     0.36500
C1665       C  0.76090592  0.55091285  0.42527019    -0.27700
C1666       C  0.74587218  0.55178302  0.42658949     0.01900
C1667       C  0.73892114  0.53118030  0.44800992     0.30000
C1668       C  0.74690765  0.51007465  0.46740921    -0.19500
C1669       C  0.76196721  0.50915125  0.46626920    -0.28900
C1670       C  0.76894415  0.52985755  0.44481840     0.44000
C1671       C  0.73751644  0.57327340  0.40499012     0.05200
O1672       O  0.72428769  0.53166122  0.45034101    -0.57400
H1673       H  0.74124001  0.49470541  0.48376173     0.18100
O1674       O  0.78357455  0.52935240  0.44245558    -0.64100
H1675       H  0.76644840  0.56607779  0.40861210     0.16600
C1676       C  0.74019832  0.60960222  0.40098991     0.28800
C1677       C  0.73272025  0.62878261  0.37938106    -0.25000
C1678       C  0.72255677  0.61228093  0.36104789    -0.24300
C1679       C  0.71951821  0.57607252  0.36593267     0.40300
C1680       C  0.72693530  0.55706090  0.38770505    -0.26800
O1681       O  0.74993530  0.62675021  0.41849269    -0.58700
H1682       H  0.73525512  0.65651689  0.37645119     0.15900
O1683       O  0.70946989  0.55870082  0.34935758    -0.60100
H1684       H  0.72469025  0.52914396  0.39049540     0.14400
H1685       H  0.78558246  0.51527690  0.42461924     0.46200
H1686       H  0.75852654  0.63012141  0.40607270     0.41600
H1687       H  0.71496488  0.54653377  0.33376406     0.45100
H1688       H  0.72211272  0.55207210  0.46319785     0.36500
C1689       C  0.73316676  0.52751212  0.22250041    -0.27700
C1690       C  0.74476526  0.51487763  0.23910015     0.01900
C1691       C  0.75212306  0.53852479  0.25779343     0.30000
C1692       C  0.74677666  0.57293348  0.26197964    -0.19500
C1693       C  0.73439603  0.58424275  0.24710011    -0.28900
C1694       C  0.72828421  0.56194592  0.22561150     0.44000
C1695       C  0.74894716  0.47718873  0.23574914     0.05200
O1696       O  0.76462348  0.52849299  0.27145636    -0.57400
H1697       H  0.75185240  0.58994012  0.27802674     0.18100
O1698       O  0.71676953  0.57255748  0.20895455    -0.64100
H1699       H  0.72745943  0.51024479  0.20757401     0.16600
C1700       C  0.75201730  0.45509439  0.26005636     0.28800
C1701       C  0.75634495  0.41999142  0.25541321    -0.25000
C1702       C  0.75689537  0.40614359  0.22693366    -0.24300
C1703       C  0.75260007  0.42719139  0.20306885     0.40300
C1704       C  0.74899681  0.46250809  0.20746441    -0.26800
O1705       O  0.75030458  0.46712935  0.28823384    -0.58700
H1706       H  0.75962061  0.40383213  0.27396310     0.15900
O1707       O  0.75293529  0.41416270  0.17503843    -0.60100
H1708       H  0.74660180  0.47870852  0.18839746     0.14400
H1709       H  0.72090076  0.58749833  0.19298450     0.46200
H1710       H  0.75982669  0.46483635  0.29780928     0.41600
H1711       H  0.76140306  0.42562143  0.16580332     0.45100
H1712       H  0.76289415  0.53104424  0.29282902     0.36500
C1713       C  0.54497249  0.40690026  0.36458231    -0.27700
C1714       C  0.53175546  0.39114128  0.37063683     0.01900
C1715       C  0.51905036  0.40875039  0.36255941     0.30000
C1716       C  0.51973998  0.44060846  0.34679430    -0.19500
C1717       C  0.53301914  0.45514233  0.33878594    -0.28900
C1718       C  0.54570876  0.43868632  0.34908754     0.44000
C1719       C  0.53160224  0.35583848  0.38463584     0.05200
O1720       O  0.50597105  0.39520525  0.37033556    -0.57400
H1721       H  0.50984395  0.45311915  0.33986711     0.18100
O1722       O  0.55896199  0.45257586  0.34325766    -0.64100
H1723       H  0.55483525  0.39388319  0.37111072     0.16600
C1724       C  0.52493771  0.32679149  0.37089084     0.28800
C1725       C  0.52572413  0.29318383  0.38375894    -0.25000
C1726       C  0.53357840  0.28786668  0.40968893    -0.24300
C1727       C  0.54027951  0.31688489  0.42335264     0.40300
C1728       C  0.53925504  0.35051918  0.41081743    -0.26800
O1729       O  0.51801810  0.33073526  0.34446741    -0.58700
H1730       H  0.52048218  0.27108626  0.37312409     0.15900
O1731       O  0.54763900  0.31277213  0.44927797    -0.60100
H1732       H  0.54448989  0.37257581  0.42153280     0.14400
H1733       H  0.56078665  0.46970867  0.35927727     0.46200
H1734       H  0.52565040  0.32935288  0.32943451     0.41600
H1735       H  0.54032322  0.31507980  0.46488523     0.45100
H1736       H  0.50129214  0.38814606  0.35167099     0.36500
C1737       C  0.48720939  0.26110480  0.54477995    -0.27700
C1738       C  0.49351319  0.29077687  0.55803098     0.01900
C1739       C  0.50775440  0.29937949  0.55076031     0.30000
C1740       C  0.51533405  0.27873770  0.53047175    -0.19500
C1741       C  0.50901688  0.24918953  0.51688065    -0.28900
C1742       C  0.49477230  0.24041289  0.52450108     0.44000
C1743       C  0.48531266  0.31154159  0.58023846     0.05200
O1744       O  0.51461366  0.32684148  0.56451479    -0.57400
H1745       H  0.52625834  0.28606845  0.52541589     0.18100
O1746       O  0.48803483  0.21180892  0.51223452    -0.64100
H1747       H  0.47630132  0.25392628  0.55015449     0.16600
C1748       C  0.48379732  0.34860268  0.57805869     0.28800
C1749       C  0.47683856  0.36757359  0.60029383    -0.25000
C1750       C  0.47091690  0.35021376  0.62478405    -0.24300
C1751       C  0.47182207  0.31288910  0.62616000     0.40300
C1752       C  0.47894141  0.29401939  0.60408267    -0.26800
O1753       O  0.48911204  0.36666609  0.55433369    -0.58700
H1754       H  0.47620801  0.39611281  0.59848544     0.15900
O1755       O  0.46627186  0.29452522  0.64950709    -0.60100
H1756       H  0.47986331  0.26554064  0.60609295     0.14400
H1757       H  0.48951467  0.19216455  0.52641939     0.46200
H1758       H  0.48198210  0.36313720  0.53842673     0.41600
H1759       H  0.47418712  0.29291297  0.66404107     0.45100
H1760       H  0.51640832  0.34471636  0.54896765     0.36500
C1761       C  0.50613358  0.03225984  0.27782973    -0.27700
C1762       C  0.49875938  0.05291348  0.29845092     0.01900
C1763       C  0.48365909  0.05123974  0.29886591     0.30000
C1764       C  0.47628096  0.02906653  0.27931180    -0.19500
C1765       C  0.48365699  0.00780354  0.25904800    -0.28900
C1766       C  0.49877202  0.00997931  0.25832094     0.44000
C1767       C  0.50683985  0.07502785  0.32013907     0.05200
O1768       O  0.47595969  0.07071060  0.31867212    -0.57400
H1769       H  0.46470379  0.02814751  0.28037906     0.18100
O1770       O  0.50652769  0.99070596  0.23848573    -0.64100
H1771       H  0.51770034  0.03353699  0.27669237     0.16600
C1772       C  0.51773749  0.06021628  0.33782994     0.28800
C1773       C  0.52417900  0.08028754  0.36014365    -0.25000
C1774       C  0.51998584  0.11546181  0.36557068    -0.24300
C1775       C  0.50960982  0.13087081  0.34669572     0.40300
C1776       C  0.50318621  0.11073356  0.32435621    -0.26800
O1777       O  0.52139006  0.02523693  0.33505123    -0.58700
H1778       H  0.53205147  0.06752663  0.37414112     0.15900
O1779       O  0.50501284  0.16495133  0.35078660    -0.60100
H1780       H  0.49502529  0.12289567  0.31068205     0.14400
H1781       H  0.50682249  0.00551997  0.22048127     0.46200
H1782       H  0.53086399  0.02524355  0.32530672     0.41600
H1783       H  0.51169595  0.17981449  0.33924601     0.45100
H1784       H  0.47647048  0.05715936  0.33733040     0.36500
C1785       C  0.50197273  0.94685054  0.50282694    -0.27700
C1786       C  0.49402747  0.96914716  0.48410393     0.01900
C1787       C  0.48230786  0.95527402  0.46852227     0.30000
C1788       C  0.47830074  0.92025613  0.47275399    -0.19500
C1789       C  0.48536944  0.89871308  0.49351822    -0.28900
C1790       C  0.49769969  0.91181432  0.50768421     0.44000
C1791       C  0.49797781  0.00672800  0.48054051     0.05200
O1792       O  0.47420563  0.97622080  0.45021129    -0.57400
H1793       H  0.46887922  0.91081552  0.46124598     0.18100
O1794       O  0.50501683  0.89169514  0.52786324    -0.64100
H1795       H  0.51130438  0.95687134  0.51425882     0.16600
C1796       C  0.50016299  0.02896931  0.50495394     0.28800
C1797       C  0.50444444  0.06406220  0.50057400    -0.25000
C1798       C  0.50611263  0.07740640  0.47206857    -0.24300
C1799       C  0.50326434  0.05572353  0.44778861     0.40300
C1800       C  0.49948239  0.02054465  0.45211298    -0.26800
O1801       O  0.49798623  0.01675796  0.53299105    -0.58700
H1802       H  0.50692795  0.08049597  0.51936299     0.15900
O1803       O  0.50559485  0.06764613  0.41974379    -0.60100
H1804       H  0.49812920  0.00368834  0.43311614     0.14400
H1805       H  0.51174000  0.87719032  0.51615071     0.46200
H1806       H  0.50768088  0.01393546  0.54166096     0.41600
H1807       H  0.49642613  0.07862790  0.41350208     0.45100
H1808       H  0.46683001  0.98702201  0.46297742     0.36500
C1809       C  0.71645441  0.91363789  0.36341929    -0.27700
C1810       C  0.70526842  0.88963737  0.36824410     0.01900
C1811       C  0.69396587  0.89915892  0.38690500     0.30000
C1812       C  0.69426903  0.93162598  0.40149345    -0.19500
C1813       C  0.70571337  0.95534377  0.39766412    -0.28900
C1814       C  0.71670866  0.94639317  0.37778828     0.44000
C1815       C  0.70549626  0.85452059  0.35401052     0.05200
O1816       O  0.68298962  0.87597347  0.39231943    -0.57400
H1817       H  0.68569440  0.93763331  0.41662847     0.18100
O1818       O  0.72760652  0.96960119  0.37185491    -0.64100
H1819       H  0.72504264  0.90687780  0.34852592     0.16600
C1820       C  0.69462558  0.84475034  0.33426395     0.28800
C1821       C  0.69469879  0.81111795  0.32174221    -0.25000
C1822       C  0.70569898  0.78672634  0.32808308    -0.24300
C1823       C  0.71662983  0.79658572  0.34789410     0.40300
C1824       C  0.71648568  0.83033962  0.36060847    -0.26800
O1825       O  0.68398967  0.86814043  0.32666428    -0.58700
H1826       H  0.68628888  0.80457770  0.30624265     0.15900
O1827       O  0.72748234  0.77360418  0.35500801    -0.60100
H1828       H  0.72489218  0.83757531  0.37590077     0.14400
H1829       H  0.73591926  0.96087603  0.38340957     0.46200
H1830       H  0.68796168  0.88224874  0.31020963     0.41600
H1831       H  0.72338910  0.75751211  0.37002580     0.45100
H1832       H  0.67456048  0.88589600  0.38183012     0.36500
C1833       C  0.61111560  0.15969735  0.43999990    -0.27700
C1834       C  0.61366951  0.12746260  0.42568825     0.01900
C1835       C  0.60216499  0.10955523  0.41260740     0.30000
C1836       C  0.58829929  0.12327369  0.41466539    -0.19500
C1837       C  0.58548281  0.15474717  0.43022620    -0.28900
C1838       C  0.59716730  0.17322837  0.44259228     0.44000
C1839       C  0.62828657  0.11213098  0.42544508     0.05200
O1840       O  0.60430815  0.07804684  0.39843856    -0.57400
H1841       H  0.57964061  0.10817168  0.40502126     0.18100
O1842       O  0.59510191  0.20401766  0.45783609    -0.64100
H1843       H  0.61991703  0.17376313  0.45019160     0.16600
C1844       C  0.63960808  0.13000578  0.41174474     0.28800
C1845       C  0.65353575  0.11645725  0.41353107    -0.25000
C1846       C  0.65657822  0.08537432  0.42961262    -0.24300
C1847       C  0.64504406  0.06675995  0.44241482     0.40300
C1848       C  0.63104478  0.08003436  0.44000437    -0.26800
O1849       O  0.63713726  0.16078151  0.39649532    -0.58700
H1850       H  0.66206800  0.13137123  0.40328655     0.15900
O1851       O  0.64731475  0.03619151  0.45806776    -0.60100
H1852       H  0.62237521  0.06592561  0.45056645     0.14400
H1853       H  0.59490301  0.19690058  0.47881516     0.46200
H1854       H  0.63990650  0.18003557  0.41010655     0.41600
H1855       H  0.64794427  0.04366433  0.47889063     0.45100
H1856       H  0.60643012  0.08459051  0.37780931     0.36500
C1857       C  0.75985382  0.18952631  0.30406766    -0.27700
C1858       C  0.74484244  0.18938115  0.30246579     0.01900
C1859       C  0.73796286  0.21103450  0.28153507     0.30000
C1860       C  0.74605612  0.23214690  0.26250277    -0.19500
C1861       C  0.76111866  0.23202097  0.26372273    -0.28900
C1862       C  0.76798095  0.21062782  0.28506182     0.44000
C1863       C  0.73650166  0.16751247  0.32346033     0.05200
O1864       O  0.72331780  0.21148931  0.27929206    -0.57400
H1865       H  0.74048409  0.24822858  0.24637061     0.18100
O1866       O  0.78260868  0.21029346  0.28780352    -0.64100
H1867       H  0.76530498  0.17359557  0.32048166     0.16600
C1868       C  0.73882775  0.13085195  0.32600531     0.28800
C1869       C  0.73177762  0.11132029  0.34782964    -0.25000
C1870       C  0.72235060  0.12782403  0.36760737    -0.24300
C1871       C  0.71951949  0.16438067  0.36391779     0.40300
C1872       C  0.72655765  0.18375433  0.34203533    -0.26800
O1873       O  0.74781913  0.11383306  0.30692555    -0.58700
H1874       H  0.73409024  0.08332896  0.34979055     0.15900
O1875       O  0.71008647  0.18174095  0.38184076    -0.60100
H1876       H  0.72459021  0.21193318  0.34024232     0.14400
H1877       H  0.78488284  0.22990551  0.30145384     0.46200
H1878       H  0.75666132  0.10886073  0.31834800     0.41600
H1879       H  0.71612115  0.19403375  0.39658237     0.45100
H1880       H  0.72089136  0.19147816  0.26616752     0.36500
C1881       C  0.74172383  0.28656486  0.50087092    -0.27700
C1882       C  0.75045314  0.26289580  0.48521139     0.01900
C1883       C  0.76316184  0.27537810  0.47241809     0.30000
C1884       C  0.76710274  0.31047343  0.47589229    -0.19500
C1885       C  0.75929651  0.33311608  0.49435297    -0.28900
C1886       C  0.74619646  0.32135457  0.50598760     0.44000
C1887       C  0.74642815  0.22524678  0.48235255     0.05200
O1888       O  0.77237262  0.25295543  0.45821480    -0.57400
H1889       H  0.77717077  0.31889016  0.46640315     0.18100
O1890       O  0.73838258  0.34229440  0.52451307    -0.64100
H1891       H  0.73169764  0.27768872  0.51018769     0.16600
C1892       C  0.74161326  0.20534525  0.50663534     0.28800
C1893       C  0.73703382  0.17053410  0.50259897    -0.25000
C1894       C  0.73768871  0.15484092  0.47478783    -0.24300
C1895       C  0.74341314  0.17385295  0.45103978     0.40300
C1896       C  0.74741838  0.20896466  0.45478077    -0.26800
O1897       O  0.74086334  0.21996814  0.53410720    -0.58700
H1898       H  0.73235437  0.15628434  0.52087833     0.15900
O1899       O  0.74350068  0.15981645  0.42330851    -0.60100
H1900       H  0.75075706  0.22393171  0.43568407     0.14400
H1901       H  0.73130397  0.35447297  0.51171682     0.46200
H1902       H  0.75024674  0.21474487  0.54341686     0.41600
H1903       H  0.75273763  0.14700168  0.42182368     0.45100
H1904       H  0.77881881  0.24355798  0.47375847     0.36500
C1905       C  0.52759936  0.82214735  0.87279589    -0.27700
C1906       C  0.53867466  0.84597260  0.87867730     0.01900
C1907       C  0.55010321  0.83587026  0.89698126     0.30000
C1908       C  0.55014692  0.80230597  0.90985780    -0.19500
C1909       C  0.53889599  0.77842835  0.90452685    -0.28900
C1910       C  0.52764746  0.78850804  0.88546742     0.44000
C1911       C  0.53845654  0.88079063  0.86441705     0.05200
O1912       O  0.56090234  0.85923403  0.90337969    -0.57400
H1913       H  0.55880453  0.79543791  0.92472628     0.18100
O1914       O  0.51679031  0.76552699  0.87863083    -0.64100
H1915       H  0.51893005  0.82961708  0.85814140     0.16600
C1916       C  0.54886853  0.88940117  0.84348706     0.28800
C1917       C  0.54819817  0.92176741  0.82894999    -0.25000
C1918       C  0.53701447  0.94568276  0.83450662    -0.24300
C1919       C  0.52659162  0.93707362  0.85568817     0.40300
C1920       C  0.52736683  0.90466608  0.87046234    -0.26800
O1921       O  0.55947369  0.86583318  0.83638531    -0.58700
H1922       H  0.55617778  0.92751438  0.81241238     0.15900
O1923       O  0.51553032  0.95974833  0.86182343    -0.60100
H1924       H  0.51925115  0.89796402  0.88647475     0.14400
H1925       H  0.50862809  0.77272862  0.89113295     0.46200
H1926       H  0.55500689  0.84924641  0.82223498     0.41600
H1927       H  0.51964719  0.97763767  0.87530167     0.45100
H1928       H  0.56935281  0.85062212  0.89238430     0.36500
C1929       C  0.49100552  0.19476687  0.77744289    -0.27700
C1930       C  0.49341268  0.21319256  0.75109146     0.01900
C1931       C  0.49987641  0.19554466  0.72742314     0.30000
C1932       C  0.50486593  0.16105205  0.73107537    -0.19500
C1933       C  0.50318376  0.14336866  0.75793004    -0.28900
C1934       C  0.49568415  0.15988330  0.78086753     0.44000
C1935       C  0.48890011  0.25052087  0.74822730     0.05200
O1936       O  0.50172657  0.21211456  0.70088170    -0.57400
H1937       H  0.51066815  0.14862624  0.71330800     0.18100
O1938       O  0.49375942  0.14306359  0.80732403    -0.64100
H1939       H  0.48598519  0.20785731  0.79585631     0.16600
C1940       C  0.47492237  0.26054048  0.75568279     0.28800
C1941       C  0.47041082  0.29506517  0.75079450    -0.25000
C1942       C  0.47944587  0.32029242  0.73749211    -0.24300
C1943       C  0.49366823  0.31068228  0.73111242     0.40300
C1944       C  0.49835532  0.27607885  0.73690751    -0.26800
O1945       O  0.46531071  0.23641698  0.76651954    -0.58700
H1946       H  0.45940009  0.30133054  0.75606669     0.15900
O1947       O  0.50297957  0.33451220  0.71889686    -0.60100
H1948       H  0.50929382  0.26891244  0.73177609     0.14400
H1949       H  0.50040830  0.15484462  0.82119083     0.46200
H1950       H  0.46137195  0.22418642  0.74903476     0.41600
H1951       H  0.50295435  0.32920605  0.69758787     0.45100
H1952       H  0.49300287  0.20645466  0.68935550     0.36500
C1953       C  0.50138457  0.20134382  0.94680885    -0.27700
C1954       C  0.49437323  0.18243081  0.92458194     0.01900
C1955       C  0.47930778  0.18520579  0.92234389     0.30000
C1956       C  0.47159411  0.20654484  0.94206506    -0.19500
C1957       C  0.47868608  0.22602619  0.96397866    -0.28900
C1958       C  0.49375655  0.22302410  0.96617531     0.44000
C1959       C  0.50287296  0.15970682  0.90416862     0.05200
O1960       O  0.47201598  0.16752309  0.90072119    -0.57400
H1961       H  0.46006738  0.20840432  0.93982507     0.18100
O1962       O  0.50113718  0.23997491  0.98808382    -0.64100
H1963       H  0.51287552  0.19898344  0.94946185     0.16600
C1964       C  0.51469780  0.17324042  0.88856700     0.28800
C1965       C  0.52207669  0.15183257  0.86848241    -0.25000
C1966       C  0.51802750  0.11647798  0.86359988    -0.24300
C1967       C  0.50662513  0.10248630  0.88044414     0.40300
C1968       C  0.49917069  0.12405834  0.90025262    -0.26800
O1969       O  0.51854621  0.20807499  0.89134049    -0.58700
H1970       H  0.53068875  0.16348703  0.85588560     0.15900
O1971       O  0.50205336  0.06835571  0.87657529    -0.60100
H1972       H  0.49031252  0.11289107  0.91243435     0.14400
H1973       H  0.50521200  0.26140651  0.97870155     0.46200
H1974       H  0.52754184  0.20783727  0.90299840     0.41600
H1975       H  0.50679433  0.05453102  0.89241383     0.45100
H1976       H  0.47261414  0.18299548  0.88313925     0.36500
C1977       C  0.56405677  0.09061432  0.57620094    -0.27700
C1978       C  0.56222466  0.11396718  0.59984526     0.01900
C1979       C  0.55967550  0.15001314  0.59386720     0.30000
C1980       C  0.55811830  0.16169576  0.56491917    -0.19500
C1981       C  0.55885407  0.13794801  0.54126128    -0.28900
C1982       C  0.56238784  0.10225946  0.54713368     0.44000
C1983       C  0.56152124  0.10028358  0.63047045     0.05200
O1984       O  0.55793347  0.17387220  0.61619581    -0.57400
H1985       H  0.55567386  0.18936934  0.56119014     0.18100
O1986       O  0.56352299  0.07807441  0.52489428    -0.64100
H1987       H  0.56635703  0.06294548  0.58030713     0.16600
C1988       C  0.55223878  0.07221517  0.63764416     0.28800
C1989       C  0.55017123  0.06272489  0.66699595    -0.25000
C1990       C  0.55706094  0.08109300  0.68978252    -0.24300
C1991       C  0.56678080  0.10818877  0.68264470     0.40300
C1992       C  0.56904166  0.11737474  0.65317433    -0.26800
O1993       O  0.54424023  0.05578933  0.61635413    -0.58700
H1994       H  0.54260320  0.04185728  0.67197149     0.15900
O1995       O  0.57396274  0.12617998  0.70423628    -0.60100
H1996       H  0.57642925  0.13856553  0.64808025     0.14400
H1997       H  0.57369481  0.07898217  0.51878690     0.46200
H1998       H  0.54866465  0.03212107  0.61389074     0.41600
H1999       H  0.58308008  0.11311060  0.70704675     0.45100
H2000       H  0.54756077  0.17345453  0.62076107     0.36500
C2001       C  0.48888829  0.95161629  0.69595667    -0.27700
C2002       C  0.49686166  0.93195610  0.67572725     0.01900
C2003       C  0.51191629  0.93311730  0.67711129     0.30000
C2004       C  0.51875018  0.95315778  0.69889004    -0.19500
C2005       C  0.51080287  0.97251839  0.71953526    -0.28900
C2006       C  0.49568799  0.97183961  0.71762875     0.44000
C2007       C  0.48932300  0.91078393  0.65305067     0.05200
O2008       O  0.52001119  0.91610651  0.65639686    -0.57400
H2009       H  0.53034312  0.95385267  0.69932784     0.18100
O2010       O  0.48740290  0.98990000  0.73735405    -0.64100
H2011       H  0.47729528  0.95102526  0.69511224     0.16600
C2012       C  0.49173940  0.87418979  0.65033724     0.28800
C2013       C  0.48502141  0.85510170  0.62791051    -0.25000
C2014       C  0.47559282  0.87178619  0.60803362    -0.24300
C2015       C  0.47257740  0.90818275  0.61190718     0.40300
C2016       C  0.47948440  0.92728971  0.63411171    -0.26800
O2017       O  0.50069326  0.85679292  0.66946888    -0.58700
H2018       H  0.48742342  0.82718664  0.62585769     0.15900
O2019       O  0.46327142  0.92578978  0.59362372    -0.60100
H2020       H  0.47734678  0.95534531  0.63620221     0.14400
H2021       H  0.48446331  0.01188880  0.72702668     0.46200
H2022       H  0.49457797  0.85008813  0.68634097     0.41600
H2023       H  0.45370451  0.92264086  0.60262692     0.32300
H2024       H  0.52489652  0.89654125  0.66700556     0.36500
C2025       C  0.69538811  0.41127419  0.87011077    -0.27700
C2026       C  0.70754607  0.38947449  0.86976702     0.01900
C2027       C  0.72027519  0.40127542  0.88317309     0.30000
C2028       C  0.72069683  0.43428718  0.89679158    -0.19500
C2029       C  0.70841639  0.45565383  0.89803621    -0.28900
C2030       C  0.69570320  0.44400762  0.88427525     0.44000
C2031       C  0.70690187  0.35443765  0.85546569     0.05200
O2032       O  0.73223785  0.38021183  0.88396080    -0.57400
H2033       H  0.73050178  0.44241439  0.90760964     0.18100
O2034       O  0.68345355  0.46404186  0.88496060    -0.64100
H2035       H  0.68558417  0.40279844  0.85949081     0.16600
C2036       C  0.69640146  0.32938830  0.86324919     0.28800
C2037       C  0.69615239  0.29626899  0.84954903    -0.25000
C2038       C  0.70637534  0.28764577  0.82829370    -0.24300
C2039       C  0.71676967  0.31287426  0.82030745     0.40300
C2040       C  0.71697798  0.34591538  0.83388229    -0.26800
O2041       O  0.68673473  0.33654249  0.88504002    -0.58700
H2042       H  0.68805755  0.27717509  0.85573558     0.15900
O2043       O  0.72652809  0.30586055  0.79864142    -0.60100
H2044       H  0.72494142  0.36515237  0.82727581     0.14400
H2045       H  0.68403108  0.47975076  0.86752870     0.46200
H2046       H  0.67754128  0.34125405  0.87476388     0.41600
H2047       H  0.72179735  0.31329878  0.78008632     0.45100
H2048       H  0.73088738  0.36440068  0.90115231     0.36500
C2049       C  0.67986714  0.16472235  0.63648641    -0.27700
C2050       C  0.67797162  0.12879893  0.63005340     0.01900
C2051       C  0.67628255  0.10448561  0.65328735     0.30000
C2052       C  0.67759423  0.11578200  0.68230335    -0.19500
C2053       C  0.68053001  0.15135863  0.68883757    -0.28900
C2054       C  0.68101772  0.17618496  0.66553967     0.44000
C2055       C  0.67972038  0.11635588  0.59949805     0.05200
O2056       O  0.67413866  0.06921401  0.64785827    -0.57400
H2057       H  0.67695472  0.09617813  0.69964741     0.18100
O2058       O  0.68353078  0.21136671  0.67062583    -0.64100
H2059       H  0.68132442  0.18376351  0.61893407     0.16600
C2060       C  0.67234825  0.13210947  0.57576645     0.28800
C2061       C  0.67520105  0.12114684  0.54698229    -0.25000
C2062       C  0.68525017  0.09428091  0.54157932    -0.24300
C2063       C  0.69248544  0.07840520  0.56543608     0.40300
C2064       C  0.68980200  0.08972861  0.59395120    -0.26800
O2065       O  0.66206164  0.15735102  0.58060749    -0.58700
H2066       H  0.66947498  0.13347491  0.52890880     0.15900
O2067       O  0.70283451  0.05319778  0.56104089    -0.60100
H2068       H  0.69592548  0.07815095  0.61182058     0.14400
H2069       H  0.67391488  0.22213098  0.67294220     0.46200
H2070       H  0.66623263  0.17988508  0.57344501     0.41600
H2071       H  0.69800186  0.03022904  0.56449789     0.45100
H2072       H  0.66382868  0.06708831  0.64292251     0.36500
C2073       C  0.63762681  0.11443144  0.82690719    -0.27700
C2074       C  0.62676823  0.12567701  0.80778021     0.01900
C2075       C  0.62964777  0.15290406  0.78750366     0.30000
C2076       C  0.64344268  0.16742332  0.78567085    -0.19500
C2077       C  0.65468082  0.15451165  0.80340217    -0.28900
C2078       C  0.65151986  0.12827332  0.82467736     0.44000
C2079       C  0.61280125  0.10708179  0.80749584     0.05200
O2080       O  0.61909161  0.16496366  0.76896890    -0.57400
H2081       H  0.64552066  0.18727521  0.76902199     0.18100
O2082       O  0.66199445  0.11539925  0.84303155    -0.64100
H2083       H  0.63549334  0.09365700  0.84273805     0.16600
C2084       C  0.60970135  0.08214761  0.78552702     0.28800
C2085       C  0.59602380  0.06706368  0.78366707    -0.25000
C2086       C  0.58519091  0.07678361  0.80340718    -0.24300
C2087       C  0.58870875  0.09964055  0.82686261     0.40300
C2088       C  0.60240861  0.11473854  0.82866344    -0.26800
O2089       O  0.61997875  0.07267608  0.76559525    -0.58700
H2090       H  0.59368213  0.04935337  0.76563120     0.15900
O2091       O  0.57871262  0.10831784  0.84760610    -0.60100
H2092       H  0.60479478  0.13325433  0.84610745     0.14400
H2093       H  0.66458139  0.09188014  0.83500963     0.46200
H2094       H  0.61740030  0.08527463  0.74719376     0.41600
H2095       H  0.57912799  0.08886330  0.86225647     0.45100
H2096       H  0.62052016  0.15198004  0.75032282     0.36500
C2097       C  0.75023659  0.35675604  0.65087584    -0.27700
C2098       C  0.75301173  0.32042341  0.65384587     0.01900
C2099       C  0.76309725  0.30467990  0.63497996     0.30000
C2100       C  0.77015984  0.32518119  0.61370045    -0.19500
C2101       C  0.76728597  0.36155993  0.61038715    -0.28900
C2102       C  0.75719755  0.37723883  0.62951634     0.44000
C2103       C  0.74489876  0.29917775  0.67593498     0.05200
O2104       O  0.76530381  0.26878098  0.63566685    -0.57400
H2105       H  0.77751647  0.31207313  0.59897075     0.18100
O2106       O  0.75356614  0.41227237  0.62686843    -0.64100
H2107       H  0.74247978  0.36935223  0.66506003     0.16600
C2108       C  0.75196580  0.27708721  0.69637200     0.28800
C2109       C  0.74406937  0.25698410  0.71648492    -0.25000
C2110       C  0.72901567  0.25875914  0.71727300    -0.24300
C2111       C  0.72195077  0.28138294  0.69714537     0.40300
C2112       C  0.72987392  0.30134529  0.67686411    -0.26800
O2113       O  0.76662530  0.27527392  0.69726742    -0.58700
H2114       H  0.74983562  0.24025731  0.73186196     0.15900
O2115       O  0.70730743  0.28398306  0.69677631    -0.60100
H2116       H  0.72421468  0.31822789  0.66143252     0.14400
H2117       H  0.75901379  0.42450013  0.64255525     0.46200
H2118       H  0.76972292  0.29678498  0.70793443     0.41600
H2119       H  0.70405516  0.26558849  0.68280407     0.45100
H2120       H  0.77541907  0.26551853  0.64182551     0.36500
C2121       C  0.21417036  0.32551706  0.36631388    -0.27700
C2122       C  0.20303945  0.34923541  0.35984417     0.01900
C2123       C  0.19172622  0.33836059  0.34155517     0.30000
C2124       C  0.19192136  0.30449279  0.32923058    -0.19500
C2125       C  0.20330055  0.28093784  0.33491010    -0.28900
C2126       C  0.21437400  0.29160848  0.35407614     0.44000
C2127       C  0.20345751  0.38520380  0.37245197     0.05200
O2128       O  0.18089586  0.36137379  0.33425879    -0.57400
H2129       H  0.18336262  0.29719784  0.31432115     0.18100
O2130       O  0.22532356  0.26897942  0.36137464    -0.64100
H2131       H  0.22278669  0.33341882  0.38087361     0.16600
C2132       C  0.19280570  0.39660516  0.39193682     0.28800
C2133       C  0.19399739  0.42959865  0.40541845    -0.25000
C2134       C  0.20586814  0.45164155  0.40016145    -0.24300
C2135       C  0.21629669  0.44063001  0.37983384     0.40300
C2136       C  0.21506782  0.40754927  0.36628320    -0.26800
O2137       O  0.18147028  0.37512211  0.39882038    -0.58700
H2138       H  0.18584912  0.43720821  0.42104141     0.15900
O2139       O  0.22783690  0.46160116  0.37338381    -0.60100
H2140       H  0.22329773  0.39907165  0.35114857     0.14400
H2141       H  0.23360469  0.27682789  0.34946280     0.46200
H2142       H  0.18435493  0.36269688  0.41712584     0.41600
H2143       H  0.22443472  0.47786831  0.35770345     0.45100
H2144       H  0.17228902  0.35233753  0.34451030     0.36500
C2145       C  0.24916535  0.46461428  0.55428749    -0.27700
C2146       C  0.24948811  0.42790900  0.54937253     0.01900
C2147       C  0.24259978  0.41425626  0.52424846     0.30000
C2148       C  0.23529857  0.43697573  0.50497369    -0.19500
C2149       C  0.23497888  0.47355004  0.50996008    -0.28900
C2150       C  0.24206610  0.48740373  0.53468897     0.44000
C2151       C  0.25635694  0.40402896  0.57135702     0.05200
O2152       O  0.24288870  0.37871020  0.51837757    -0.57400
H2153       H  0.22994270  0.42603392  0.48591316     0.18100
O2154       O  0.24136855  0.52285576  0.54082931    -0.64100
H2155       H  0.25413632  0.47554288  0.57377541     0.16600
C2156       C  0.27049957  0.40970955  0.58118184     0.28800
C2157       C  0.27618832  0.38916698  0.60414036    -0.25000
C2158       C  0.26809158  0.36211617  0.61721130    -0.24300
C2159       C  0.25417537  0.35532316  0.60633505     0.40300
C2160       C  0.24843442  0.37623999  0.58372209    -0.26800
O2161       O  0.27877537  0.43570941  0.56885432    -0.58700
H2162       H  0.28688800  0.39479014  0.61210278     0.15900
O2163       O  0.24576795  0.32957238  0.61868854    -0.60100
H2164       H  0.23751367  0.37159431  0.57662446     0.14400
H2165       H  0.24980479  0.53341130  0.53100258     0.46200
H2166       H  0.28206463  0.42584759  0.54988547     0.41600
H2167       H  0.24025590  0.34169831  0.63427043     0.45100
H2168       H  0.25233845  0.37438729  0.50920342     0.36500
C2169       C  0.23878479  0.70956558  0.28578917    -0.27700
C2170       C  0.24587777  0.68785071  0.30623224     0.01900
C2171       C  0.26099445  0.68674905  0.30592199     0.30000
C2172       C  0.26870508  0.70696944  0.28548602    -0.19500
C2173       C  0.26162349  0.72904426  0.26520198    -0.28900
C2174       C  0.24647194  0.72983539  0.26538510     0.44000
C2175       C  0.23752971  0.66585227  0.32740473     0.05200
O2176       O  0.26837126  0.66619251  0.32573170    -0.57400
H2177       H  0.28029224  0.70573485  0.28584153     0.18100
O2178       O  0.23898531  0.74979306  0.24533585    -0.64100
H2179       H  0.22719450  0.71029446  0.28521598     0.16600
C2180       C  0.22710112  0.68073631  0.34598767     0.28800
C2181       C  0.22053472  0.65986727  0.36770612    -0.25000
C2182       C  0.22404475  0.62383855  0.37119824    -0.24300
C2183       C  0.23390070  0.60866550  0.35133575     0.40300
C2184       C  0.24041509  0.62953833  0.32973399    -0.26800
O2185       O  0.22397540  0.71616203  0.34446260    -0.58700
H2186       H  0.21305742  0.67236704  0.38254914     0.15900
O2187       O  0.23771844  0.57369783  0.35337595    -0.60100
H2188       H  0.24810554  0.61736890  0.31515320     0.14400
H2189       H  0.23845812  0.73502196  0.22740183     0.46200
H2190       H  0.21430483  0.71758092  0.33546912     0.41600
H2191       H  0.24663602  0.57339161  0.36528922     0.45100
H2192       H  0.27004142  0.68168398  0.34293361     0.36500
C2193       C  0.24750770  0.69962276  0.50565335    -0.27700
C2194       C  0.24760220  0.72253481  0.48124680     0.01900
C2195       C  0.24497725  0.70856631  0.45306917     0.30000
C2196       C  0.24205131  0.67261199  0.44973993    -0.19500
C2197       C  0.24093039  0.65040438  0.47430248    -0.28900
C2198       C  0.24379167  0.66397590  0.50240013     0.44000
C2199       C  0.25071205  0.76069123  0.48524754     0.05200
O2200       O  0.24439675  0.73016757  0.42882287    -0.57400
H2201       H  0.23929265  0.66280240  0.42810629     0.18100
O2202       O  0.24259948  0.64279280  0.52678032    -0.64100
H2203       H  0.24988769  0.70958947  0.52739985     0.16600
C2204       C  0.24414715  0.78075200  0.50760520     0.28800
C2205       C  0.24879637  0.81529114  0.51327282    -0.25000
C2206       C  0.25976475  0.83035518  0.49645132    -0.24300
C2207       C  0.26507801  0.81169543  0.47199122     0.40300
C2208       C  0.26082964  0.77697251  0.46706302    -0.26800
O2209       O  0.23365130  0.76636261  0.52487104    -0.58700
H2210       H  0.24458648  0.82918074  0.53213917     0.15900
O2211       O  0.27542446  0.82605325  0.45427201    -0.60100
H2212       H  0.26602451  0.76221449  0.44976357     0.14400
H2213       H  0.23292208  0.64766281  0.53471267     0.46200
H2214       H  0.22472762  0.76848700  0.51313003     0.41600
H2215       H  0.27014912  0.84099294  0.43992877     0.45100
H2216       H  0.23419335  0.73707043  0.42684202     0.36500
C2217       C  0.05168958  0.84495019  0.40164557    -0.27700
C2218       C  0.03948967  0.85639396  0.38632272     0.01900
C2219       C  0.02772129  0.83356733  0.38339830     0.30000
C2220       C  0.02818472  0.79984600  0.39594156    -0.19500
C2221       C  0.04023862  0.78835489  0.41189175    -0.28900
C2222       C  0.05213176  0.81131981  0.41455602     0.44000
C2223       C  0.03935431  0.89150566  0.37210509     0.05200
O2224       O  0.01592438  0.84357448  0.36734035    -0.57400
H2225       H  0.01896318  0.78278665  0.39331188     0.18100
O2226       O  0.06398969  0.80191090  0.43067227    -0.64100
H2227       H  0.06083426  0.86235961  0.40390498     0.16600
C2228       C  0.02881893  0.91684867  0.37885952     0.28800
C2229       C  0.02801963  0.94838894  0.36273966    -0.25000
C2230       C  0.03783733  0.95536737  0.34017268    -0.24300
C2231       C  0.04868043  0.93028574  0.33420834     0.40300
C2232       C  0.04941345  0.89884954  0.35027312    -0.26800
O2233       O  0.01914025  0.91078798  0.40087175    -0.58700
H2234       H  0.01968704  0.96733725  0.36781595     0.15900
O2235       O  0.05828120  0.93544983  0.31188895    -0.60100
H2236       H  0.05753603  0.87946692  0.34485950     0.14400
H2237       H  0.07104646  0.79339108  0.41610882     0.46200
H2238       H  0.02435409  0.91613391  0.41934136     0.41600
H2239       H  0.05341202  0.92656641  0.29397184     0.45100
H2240       H  0.00822653  0.84744770  0.38192622     0.36500
C2241       C  0.14209603  0.62063354  0.41065258    -0.27700
C2242       C  0.13155857  0.61056719  0.43072178     0.01900
C2243       C  0.13480320  0.58544492  0.45259689     0.30000
C2244       C  0.14869287  0.57177250  0.45498641    -0.19500
C2245       C  0.15955746  0.58331256  0.43595724    -0.28900
C2246       C  0.15601116  0.60717966  0.41306475     0.44000
C2247       C  0.11734587  0.62748378  0.42962514     0.05200
O2248       O  0.12449944  0.57452591  0.47198839    -0.57400
H2249       H  0.15111621  0.55355587  0.47274267     0.18100
O2250       O  0.16615955  0.61853368  0.39351449    -0.64100
H2251       H  0.13961859  0.63976341  0.39359881     0.16600
C2252       C  0.11389600  0.65476898  0.44922095     0.28800
C2253       C  0.09989760  0.66783875  0.45032381    -0.25000
C2254       C  0.08911341  0.65384064  0.43209271    -0.24300
C2255       C  0.09294012  0.62810601  0.41099421     0.40300
C2256       C  0.10696792  0.61512116  0.40998617    -0.26800
O2257       O  0.12396630  0.66747123  0.46846759    -0.58700
H2258       H  0.09734775  0.68754065  0.46670933     0.15900
O2259       O  0.08293922  0.61394274  0.39232267    -0.60100
H2260       H  0.10962345  0.59434845  0.39459961     0.14400
H2261       H  0.16696792  0.59928423  0.37887763     0.46200
H2262       H  0.12846136  0.68774382  0.45817329     0.41600
H2263       H  0.08201303  0.63129150  0.37604634     0.45100
H2264       H  0.12500547  0.59147527  0.48852676     0.36500
C2265       C  0.00070926  0.60868178  0.33624006    -0.27700
C2266       C  0.00675285  0.57703294  0.32593021     0.01900
C2267       C  0.02083223  0.56831928  0.33480513     0.30000
C2268       C  0.02808575  0.58959537  0.35529015    -0.19500
C2269       C  0.02168186  0.62016760  0.36687991    -0.28900
C2270       C  0.00806089  0.63029862  0.35618051     0.44000
C2271       C  0.99812836  0.55350824  0.30626864     0.05200
O2272       O  0.02771468  0.53962275  0.32297256    -0.57400
H2273       H  0.03863490  0.58156113  0.36273479     0.18100
O2274       O  0.00127200  0.65972786  0.36684147    -0.64100
H2275       H  0.98996329  0.61613738  0.32964325     0.16600
C2276       C  0.99691863  0.51675775  0.31160386     0.28800
C2277       C  0.98896134  0.49534063  0.29245430    -0.25000
C2278       C  0.98141042  0.51011397  0.26869750    -0.24300
C2279       C  0.98203435  0.54692994  0.26409103     0.40300
C2280       C  0.99041981  0.56820609  0.28256603    -0.26800
O2281       O  0.00312741  0.50153511  0.33588422    -0.58700
H2282       H  0.98843600  0.46711592  0.29653830     0.15900
O2283       O  0.97475988  0.56230642  0.24114768    -0.60100
H2284       H  0.99100693  0.59633487  0.27813233     0.14400
H2285       H  0.00315139  0.67860491  0.35218715     0.46200
H2286       H  0.99619794  0.50527359  0.35203007     0.41600
H2287       H  0.98158620  0.56236644  0.22452518     0.45100
H2288       H  0.02987636  0.52356706  0.33970187     0.36500
C2289       C  0.99795701  0.52576513  0.44826644    -0.27700
C2290       C  0.99661831  0.51105975  0.47648876     0.01900
C2291       C  0.99960088  0.53235425  0.50118571     0.30000
C2292       C  0.00504419  0.56643724  0.49739695    -0.19500
C2293       C  0.00690489  0.58040094  0.46921546    -0.28900
C2294       C  0.00282871  0.56040766  0.44456440     0.44000
C2295       C  0.99244502  0.47345447  0.48017740     0.05200
O2296       O  0.99768561  0.51969951  0.52914728    -0.57400
H2297       H  0.00833692  0.58151232  0.51645323     0.18100
O2298       O  0.00500489  0.57309670  0.41668897    -0.64100
H2299       H  0.99588452  0.50990194  0.42896588     0.16600
C2300       C  0.98049470  0.45947724  0.46536842     0.28800
C2301       C  0.97560803  0.42569553  0.47248912    -0.25000
C2302       C  0.98223030  0.40555051  0.49481063    -0.24300
C2303       C  0.99497454  0.41813010  0.50757479     0.40300
C2304       C  0.00005931  0.45172740  0.49997440    -0.26800
O2305       O  0.97265346  0.47983334  0.44614700    -0.58700
H2306       H  0.96588930  0.41641213  0.46197122     0.15900
O2307       O  0.00177588  0.39951208  0.52943796    -0.60100
H2308       H  0.00961307  0.46155852  0.51073915     0.14400
H2309       H  0.99630014  0.58704319  0.41192228     0.46200
H2310       H  0.97439349  0.46951272  0.42648011     0.41600
H2311       H  0.00924031  0.38548156  0.51932237     0.45100
H2312       H  0.98751243  0.52461887  0.53376757     0.36500
C2313       C  0.21859192  0.82523521  0.86276118    -0.27700
C2314       C  0.20666976  0.84769666  0.85943888     0.01900
C2315       C  0.19528331  0.83696075  0.84127837     0.30000
C2316       C  0.19588096  0.80433302  0.82698896    -0.19500
C2317       C  0.20778547  0.78164471  0.83010624    -0.28900
C2318       C  0.21920719  0.79244602  0.84835589     0.44000
C2319       C  0.20625707  0.88244733  0.87464921     0.05200
O2320       O  0.18393100  0.85920940  0.83588541    -0.57400
H2321       H  0.18703724  0.79733693  0.81269712     0.18100
O2322       O  0.23108495  0.77154089  0.85205476    -0.64100
H2323       H  0.22745218  0.83313949  0.87667791     0.16600
C2324       C  0.19468622  0.89171474  0.89284151     0.28800
C2325       C  0.19446637  0.92454354  0.90687372    -0.25000
C2326       C  0.20582894  0.94862097  0.90376401    -0.24300
C2327       C  0.21736498  0.93947262  0.88525461     0.40300
C2328       C  0.21752056  0.90661436  0.87102012    -0.26800
O2329       O  0.18367828  0.86849049  0.89774554    -0.58700
H2330       H  0.18553150  0.93059021  0.92109737     0.15900
O2331       O  0.22860172  0.96220916  0.88100729    -0.60100
H2332       H  0.22645356  0.90003029  0.85694669     0.14400
H2333       H  0.22861129  0.75498810  0.86818911     0.46200
H2334       H  0.18709490  0.85276156  0.91377846     0.41600
H2335       H  0.22547536  0.97821156  0.86490611     0.45100
H2336       H  0.17541165  0.84712716  0.84411117     0.36500
C2337       C  0.18181216  0.64991446  0.63990830    -0.27700
C2338       C  0.17958297  0.61378351  0.63516620     0.01900
C2339       C  0.17774515  0.59103340  0.65937355     0.30000
C2340       C  0.17906737  0.60430374  0.68788811    -0.19500
C2341       C  0.18221096  0.64022148  0.69262955    -0.28900
C2342       C  0.18308410  0.66327023  0.66821486     0.44000
C2343       C  0.18120075  0.60013389  0.60507364     0.05200
O2344       O  0.17536011  0.55558144  0.65533982    -0.57400
H2345       H  0.17828329  0.58606101  0.70620347     0.18100
O2346       O  0.18564737  0.69876730  0.67157117    -0.64100
H2347       H  0.18346637  0.66770560  0.62154398     0.16600
C2348       C  0.17401208  0.61621297  0.58128709     0.28800
C2349       C  0.17770502  0.60733215  0.55254109    -0.25000
C2350       C  0.18848615  0.58239627  0.54715036    -0.24300
C2351       C  0.19537315  0.56551221  0.57098387     0.40300
C2352       C  0.19168799  0.57441755  0.59966935    -0.26800
O2353       O  0.16331023  0.64041963  0.58605653    -0.58700
H2354       H  0.17215507  0.62007214  0.53442960     0.15900
O2355       O  0.20613706  0.54140411  0.56653280    -0.60100
H2356       H  0.19757505  0.56250462  0.61772329     0.14400
H2357       H  0.19605294  0.70177510  0.66803675     0.46200
H2358       H  0.16713067  0.66342721  0.57910027     0.41600
H2359       H  0.21504117  0.55560774  0.56538949     0.45100
H2360       H  0.16497067  0.55222859  0.65877174     0.36500
C2361       C  0.23120235  0.52288916  0.71917549    -0.27700
C2362       C  0.24013832  0.50395628  0.73853154     0.01900
C2363       C  0.24708828  0.52274374  0.76137487     0.30000
C2364       C  0.24372214  0.55851230  0.76639698    -0.19500
C2365       C  0.23378331  0.57617743  0.74848538    -0.28900
C2366       C  0.22825813  0.55866629  0.72361950     0.44000
C2367       C  0.24243646  0.46524486  0.73357717     0.05200
O2368       O  0.25741643  0.50670320  0.77835077    -0.57400
H2369       H  0.24819624  0.57168234  0.78542415     0.18100
O2370       O  0.21945353  0.57614917  0.70414396    -0.64100
H2371       H  0.22597083  0.50972340  0.70099726     0.16600
C2372       C  0.24321712  0.44053299  0.75695323     0.28800
C2373       C  0.24746797  0.40552233  0.75139386    -0.25000
C2374       C  0.25008233  0.39426043  0.72266065    -0.24300
C2375       C  0.24721144  0.41731015  0.69915169     0.40300
C2376       C  0.24385500  0.45266040  0.70466453    -0.26800
O2377       O  0.23960122  0.45017863  0.78501609    -0.58700
H2378       H  0.24939737  0.38763674  0.76963351     0.15900
O2379       O  0.24937940  0.40664895  0.67075563    -0.60100
H2380       H  0.24310094  0.47056864  0.68612431     0.14400
H2381       H  0.20972065  0.56649423  0.70746262     0.46200
H2382       H  0.24796478  0.44412168  0.79758931     0.41600
H2383       H  0.23969451  0.40126478  0.66296766     0.45100
H2384       H  0.25410757  0.50873032  0.79895926     0.36500
C2385       C  0.22409617  0.55500212  0.89462551    -0.27700
C2386       C  0.23481870  0.57046134  0.91205090     0.01900
C2387       C  0.23861917  0.60595350  0.90655381     0.30000
C2388       C  0.23233974  0.62462289  0.88315600    -0.19500
C2389       C  0.22201687  0.60876393  0.86484368    -0.28900
C2390       C  0.21762894  0.57380360  0.87147426     0.44000
C2391       C  0.24265478  0.54875680  0.93442928     0.05200
O2392       O  0.24872783  0.62249870  0.92354682    -0.57400
H2393       H  0.23589533  0.65141174  0.87892809     0.18100
O2394       O  0.20748360  0.55700193  0.85475739    -0.64100
H2395       H  0.22106500  0.52769684  0.89822209     0.16600
C2396       C  0.23538487  0.52820643  0.95550935     0.28800
C2397       C  0.24313933  0.50706157  0.97545461    -0.25000
C2398       C  0.25822252  0.50576662  0.97486433    -0.24300
C2399       C  0.26544259  0.52666000  0.95389806     0.40300
C2400       C  0.25768966  0.54758603  0.93392679    -0.26800
O2401       O  0.22073559  0.52955377  0.95744479    -0.58700
H2402       H  0.23727855  0.49172959  0.99154192     0.15900
O2403       O  0.28007670  0.52579189  0.95182198    -0.60100
H2404       H  0.26350008  0.56252993  0.91751824     0.14400
H2405       H  0.19823551  0.56223826  0.86445032     0.46200
H2406       H  0.21730543  0.50655219  0.94974326     0.41600
H2407       H  0.28347604  0.54601630  0.96377182     0.45100
H2408       H  0.24344983  0.63130328  0.94090360     0.36500
C2409       C  0.23338004  0.79078626  0.67390146    -0.27700
C2410       C  0.24839645  0.78870359  0.67351916     0.01900
C2411       C  0.25530554  0.76660336  0.69411552     0.30000
C2412       C  0.24724406  0.74715837  0.71458945    -0.19500
C2413       C  0.23217601  0.74923950  0.71518316    -0.28900
C2414       C  0.22529543  0.77144558  0.69439766     0.44000
C2415       C  0.25669543  0.81054499  0.65212096     0.05200
O2416       O  0.26997699  0.76538461  0.69545102    -0.57400
H2417       H  0.25289250  0.73084403  0.73044350     0.18100
O2418       O  0.21065369  0.77391027  0.69338128    -0.64100
H2419       H  0.22786907  0.80753463  0.65814163     0.16600
C2420       C  0.26591670  0.79496986  0.63143390     0.28800
C2421       C  0.27319270  0.81616666  0.61092006    -0.25000
C2422       C  0.27150574  0.85319583  0.61042443    -0.24300
C2423       C  0.26234970  0.86871524  0.63152840     0.40300
C2424       C  0.25505837  0.84745611  0.65191220    -0.26800
O2425       O  0.26710774  0.75885390  0.62978972    -0.58700
H2426       H  0.27979359  0.80325725  0.59464784     0.15900
O2427       O  0.25997284  0.90451602  0.63188034    -0.60100
H2428       H  0.24797532  0.85990414  0.66758533     0.14400
H2429       H  0.20830088  0.79599862  0.70402021     0.46200
H2430       H  0.27717230  0.75339692  0.63516754     0.41600
H2431       H  0.26731270  0.91416359  0.64544046     0.45100
H2432       H  0.27263330  0.74119320  0.68907076     0.36500
C2433       C  0.02291100  0.34086505  0.88806094    -0.27700
C2434       C  0.03546085  0.35216509  0.87400435     0.01900
C2435       C  0.04769455  0.33022403  0.87526045     0.30000
C2436       C  0.04723517  0.29801739  0.89052843    -0.19500
C2437       C  0.03460206  0.28658539  0.90423523    -0.28900
C2438       C  0.02233814  0.30839205  0.90271619     0.44000
C2439       C  0.03558778  0.38701521  0.85862078     0.05200
O2440       O  0.06016541  0.33987362  0.86163573    -0.57400
H2441       H  0.05680715  0.28183470  0.89148494     0.18100
O2442       O  0.00979120  0.29877433  0.91609830    -0.64100
H2443       H  0.01350917  0.35763341  0.88829180     0.16600
C2444       C  0.02409503  0.39739734  0.84029007     0.28800
C2445       C  0.02407649  0.43084715  0.82711887    -0.25000
C2446       C  0.03555781  0.45419655  0.83112757    -0.24300
C2447       C  0.04720994  0.44370142  0.84884541     0.40300
C2448       C  0.04704800  0.41061573  0.86281557    -0.26800
O2449       O  0.01323310  0.37425727  0.83374681    -0.58700
H2450       H  0.01525219  0.43799984  0.81274484     0.15900
O2451       O  0.05880728  0.46548675  0.85256532    -0.60100
H2452       H  0.05587977  0.40359529  0.87717082     0.14400
H2453       H  0.01011023  0.31002122  0.93572919     0.46200
H2454       H  0.00448135  0.38457833  0.84255680     0.41600
H2455       H  0.05745675  0.47661183  0.87204295     0.45100
H2456       H  0.05943928  0.33003227  0.84153749     0.36500
C2457       C  0.07102269  0.57422693  0.64328949    -0.27700
C2458       C  0.06648817  0.60642884  0.63103160     0.01900
C2459       C  0.05935006  0.63126865  0.64874148     0.30000
C2460       C  0.05647117  0.62327050  0.67803168    -0.19500
C2461       C  0.06044231  0.59049707  0.69000337    -0.28900
C2462       C  0.06811113  0.56621700  0.67266070     0.44000
C2463       C  0.06759390  0.61244336  0.59912540     0.05200
O2464       O  0.05398902  0.66200741  0.63689524    -0.57400
H2465       H  0.05041121  0.64204881  0.69094288     0.18100
O2466       O  0.07252921  0.53435438  0.68399983    -0.64100
H2467       H  0.07650442  0.55494040  0.62983481     0.16600
C2468       C  0.07350713  0.64392497  0.58799798     0.28800
C2469       C  0.07096151  0.65354198  0.55886269    -0.25000
C2470       C  0.06300952  0.63140961  0.54029961    -0.24300
C2471       C  0.05863130  0.59794494  0.55046277     0.40300
C2472       C  0.06080788  0.58880421  0.57990134    -0.26800
O2473       O  0.08098993  0.66647983  0.60588847    -0.58700
H2474       H  0.07474365  0.67895306  0.55102852     0.15900
O2475       O  0.05092980  0.57565150  0.53274000    -0.60100
H2476       H  0.05630516  0.56433648  0.58817315     0.14400
H2477       H  0.08226089  0.53879324  0.69195359     0.46200
H2478       H  0.09057461  0.65550080  0.60828330     0.41600
H2479       H  0.05810722  0.55928705  0.52426988     0.45100
H2480       H  0.05995718  0.68122208  0.64522864     0.36500
C2481       C  0.11099955  0.57996919  0.80215046    -0.27700
C2482       C  0.11335760  0.61480840  0.81163896     0.01900
C2483       C  0.10158693  0.63593092  0.81923350     0.30000
C2484       C  0.08769528  0.62274567  0.81615238    -0.19500
C2485       C  0.08515284  0.58861047  0.80486916    -0.28900
C2486       C  0.09705188  0.56683776  0.79859490     0.44000
C2487       C  0.12797828  0.62997255  0.81089558     0.05200
O2488       O  0.10354642  0.67021148  0.82820041    -0.57400
H2489       H  0.07887397  0.64029537  0.82119637     0.18100
O2490       O  0.09525608  0.53357690  0.78727327    -0.64100
H2491       H  0.11999341  0.56350600  0.79599210     0.16600
C2492       C  0.13920444  0.61521067  0.82748792     0.28800
C2493       C  0.15311184  0.62861880  0.82472566    -0.25000
C2494       C  0.15620753  0.65622905  0.80482865    -0.24300
C2495       C  0.14478066  0.67159091  0.78882347     0.40300
C2496       C  0.13084273  0.65854894  0.79208446    -0.26800
O2497       O  0.13667479  0.58764662  0.84643215    -0.58700
H2498       H  0.16160347  0.61617594  0.83732998     0.15900
O2499       O  0.14719056  0.69759134  0.76837424    -0.60100
H2500       H  0.12230024  0.66987624  0.77889458     0.14400
H2501       H  0.09368946  0.51804468  0.80454811     0.46200
H2502       H  0.14009660  0.56621066  0.83608524     0.41600
H2503       H  0.14491394  0.72007690  0.77848759     0.45100
H2504       H  0.10143744  0.67016139  0.84952213     0.36500
C2505       C  0.97832740  0.43715618  0.63446752    -0.27700
C2506       C  0.98744520  0.41989998  0.65455089     0.01900
C2507       C  0.98817603  0.38265711  0.65388196     0.30000
C2508       C  0.98046190  0.36362271  0.63255141    -0.19500
C2509       C  0.97179321  0.38097163  0.61155541    -0.28900
C2510       C  0.97048435  0.41818685  0.61339553     0.44000
C2511       C  0.99572159  0.44120146  0.67648038     0.05200
O2512       O  0.99597245  0.36456466  0.67468327    -0.57400
H2513       H  0.98149789  0.33508812  0.63222002     0.18100
O2514       O  0.96201872  0.43664931  0.59402170    -0.64100
H2515       H  0.97744529  0.46573099  0.63477705     0.16600
C2516       C  0.01066628  0.43738984  0.68021676     0.28800
C2517       C  0.01803482  0.45790020  0.70108547    -0.25000
C2518       C  0.01085110  0.48323885  0.71822497    -0.24300
C2519       C  0.99592204  0.48755990  0.71381085     0.40300
C2520       C  0.98858415  0.46673649  0.69325973    -0.26800
O2521       O  0.01827503  0.41431375  0.66312572    -0.58700
H2522       H  0.02947892  0.45420361  0.70352948     0.15900
O2523       O  0.98830116  0.51228251  0.72923241    -0.60100
H2524       H  0.97714897  0.47045399  0.69057946     0.14400
H2525       H  0.95272900  0.43964684  0.60419291     0.46200
H2526       H  0.02044731  0.42761928  0.64487885     0.41600
H2527       H  0.98413630  0.49919354  0.74605813     0.45100
H2528       H  0.00386399  0.35292571  0.66385914     0.36500
C2529       C  0.95155095  0.59699171  0.15084028    -0.27700
C2530       C  0.95994207  0.60133018  0.12577470     0.01900
C2531       C  0.96858764  0.57318187  0.11601452     0.30000
C2532       C  0.96864026  0.54089660  0.13138009    -0.19500
C2533       C  0.95999245  0.53639640  0.15627300    -0.28900
C2534       C  0.95163560  0.56507128  0.16621962     0.44000
C2535       C  0.95976861  0.63586144  0.11064549     0.05200
O2536       O  0.97698418  0.57699548  0.09156704    -0.57400
H2537       H  0.97523654  0.51929121  0.12364549     0.18100
O2538       O  0.94372839  0.56243003  0.19145130    -0.64100
H2539       H  0.94508662  0.61873336  0.15881748     0.16600
C2540       C  0.94730937  0.64806873  0.09651148     0.28800
C2541       C  0.94715882  0.68149728  0.08330917    -0.25000
C2542       C  0.95932676  0.70346489  0.08415442    -0.24300
C2543       C  0.97171572  0.69125342  0.09898760     0.40300
C2544       C  0.97186757  0.65761789  0.11189969    -0.26800
O2545       O  0.93542435  0.62690055  0.09452917    -0.58700
H2546       H  0.93754441  0.68980664  0.07181602     0.15900
O2547       O  0.98382165  0.71162082  0.10072181    -0.60100
H2548       H  0.98142689  0.64858013  0.12322004     0.14400
H2549       H  0.95028527  0.56987981  0.20744860     0.46200
H2550       H  0.92881386  0.63564190  0.10987660     0.41600
H2551       H  0.98238085  0.72693586  0.11809898     0.45100
H2552       H  0.97029004  0.57571457  0.07464160     0.36500
C2553       C  0.00985250  0.93730474  0.18592515    -0.27700
C2554       C  0.99482896  0.93890947  0.18481543     0.01900
C2555       C  0.98768689  0.96143538  0.20451417     0.30000
C2556       C  0.99553154  0.98170393  0.22480823    -0.19500
C2557       C  0.01061761  0.98045031  0.22587343    -0.28900
C2558       C  0.01772849  0.95792252  0.20589460     0.44000
C2559       C  0.98688697  0.91733817  0.16261793     0.05200
O2560       O  0.97300363  0.96264454  0.20494791    -0.57400
H2561       H  0.98969045  0.99835861  0.23991764     0.18100
O2562       O  0.03237784  0.95578315  0.20549327    -0.64100
H2563       H  0.01555377  0.92035061  0.17080138     0.16600
C2564       C  0.97797606  0.93337210  0.14134993     0.28800
C2565       C  0.97185234  0.91307532  0.11882459    -0.25000
C2566       C  0.97448631  0.87647072  0.11662793    -0.24300
C2567       C  0.98273668  0.86010499  0.13901092     0.40300
C2568       C  0.98896033  0.88054522  0.16142703    -0.26800
O2569       O  0.97569751  0.96920639  0.14150577    -0.58700
H2570       H  0.96551625  0.92654234  0.10223873     0.15900
O2571       O  0.98518078  0.82433380  0.13882378    -0.60100
H2572       H  0.99562825  0.86762895  0.17777936     0.14400
H2573       H  0.03548389  0.97448957  0.19145367     0.46200
H2574       H  0.98349575  0.97932690  0.12941178     0.41600
H2575       H  0.97770297  0.81411969  0.15171156     0.45100
H2576       H  0.97039891  0.98677968  0.19815121     0.36500
C2577       C  0.00333652  0.95254426  0.00584626    -0.27700
C2578       C  0.99497366  0.97311962  0.98638277     0.01900
C2579       C  0.98425144  0.95628081  0.96966680     0.30000
C2580       C  0.98139759  0.92062827  0.97417198    -0.19500
C2581       C  0.98804769  0.90186122  0.99718307    -0.28900
C2582       C  0.99973283  0.91726422  0.01182531     0.44000
C2583       C  0.99723985  0.01194898  0.98410941     0.05200
O2584       O  0.97561975  0.97488413  0.95065835    -0.57400
H2585       H  0.97257260  0.90894219  0.96209001     0.18100
O2586       O  0.00695334  0.89917312  0.03345004    -0.64100
H2587       H  0.01219486  0.96431440  0.01766584     0.16600
C2588       C  0.99967842  0.03293801  0.00926835     0.28800
C2589       C  0.00328066  0.06870650  0.00603633    -0.25000
C2590       C  0.00366440  0.08433547  0.97811922    -0.24300
C2591       C  0.99962722  0.06445630  0.95346803     0.40300
C2592       C  0.99704235  0.02836099  0.95639216    -0.26800
O2593       O  0.99848953  0.01880216  0.03696646    -0.58700
H2594       H  0.00636555  0.08386843  0.02519117     0.15900
O2595       O  0.99983536  0.07911315  0.92590652    -0.60100
H2596       H  0.99548493  0.01302555  0.93661774     0.14400
H2597       H  0.00244355  0.90661370  0.05212224     0.46200
H2598       H  0.00829616  0.01917618  0.04540687     0.41600
H2599       H  0.98989946  0.08734126  0.92227329     0.45100
H2600       H  0.96728136  0.98242766  0.96251400     0.36500
C2601       C  0.01557274  0.68613898  0.88550822    -0.27700
C2602       C  0.00548410  0.67065837  0.90440533     0.01900
C2603       C  0.00283135  0.63400973  0.90184459     0.30000
C2604       C  0.00975178  0.61402310  0.88025847    -0.19500
C2605       C  0.01962825  0.62960517  0.86094055    -0.28900
C2606       C  0.02272681  0.66602892  0.86428725     0.44000
C2607       C  0.99768754  0.69276063  0.92643263     0.05200
O2608       O  0.99334895  0.61733068  0.92014148    -0.57400
H2609       H  0.00707265  0.58626793  0.87826327     0.18100
O2610       O  0.03272020  0.68243250  0.84695494    -0.64100
H2611       H  0.01772080  0.71422980  0.88661278     0.16600
C2612       C  0.00491512  0.71736882  0.94438662     0.28800
C2613       C  0.99737157  0.73672220  0.96556375    -0.25000
C2614       C  0.98253089  0.73227800  0.96948057    -0.24300
C2615       C  0.97528242  0.70805937  0.95115303     0.40300
C2616       C  0.98280564  0.68896017  0.92982976    -0.26800
O2617       O  0.01947687  0.72148172  0.94245986    -0.58700
H2618       H  0.00328751  0.75499902  0.97926370     0.15900
O2619       O  0.96085014  0.70246590  0.95393841    -0.60100
H2620       H  0.97689812  0.67105589  0.91578839     0.14400
H2621       H  0.02716840  0.69462372  0.83132019     0.46200
H2622       H  0.02093318  0.74531628  0.93379449     0.41600
H2623       H  0.95629499  0.71878054  0.93959045     0.45100
H2624       H  0.99880886  0.61248452  0.93843784     0.36500
C2625       C  0.77466884  0.15892323  0.11987888    -0.27700
C2626       C  0.78480915  0.13305469  0.12783118     0.01900
C2627       C  0.79533335  0.14150492  0.14887034     0.30000
C2628       C  0.79581114  0.17527635  0.16114750    -0.19500
C2629       C  0.78569265  0.20123566  0.15341349    -0.28900
C2630       C  0.77501378  0.19275693  0.13254866     0.44000
C2631       C  0.78505577  0.09816820  0.11283491     0.05200
O2632       O  0.80517866  0.11673114  0.15781858    -0.57400
H2633       H  0.80394031  0.18076403  0.17753797     0.18100
O2634       O  0.76494331  0.21729430  0.12422711    -0.64100
H2635       H  0.76663577  0.15314367  0.10336954     0.16600
C2636       C  0.77289173  0.07626534  0.11125839     0.28800
C2637       C  0.77355962  0.04395224  0.09617268    -0.25000
C2638       C  0.78623822  0.03301848  0.08215444    -0.24300
C2639       C  0.79850188  0.05475791  0.08459884     0.40300
C2640       C  0.79779057  0.08682432  0.09967907    -0.26800
O2641       O  0.76042736  0.08579472  0.12497485    -0.58700
H2642       H  0.76400301  0.02781413  0.09498240     0.15900
O2643       O  0.81127584  0.04530182  0.07210335    -0.60100
H2644       H  0.80724579  0.10337039  0.10054280     0.14400
H2645       H  0.76877297  0.22831568  0.10610074     0.46200
H2646       H  0.75396333  0.09410873  0.10904770     0.41600
H2647       H  0.81151516  0.05787192  0.05296007     0.45100
H2648       H  0.80086239  0.10517764  0.17523638     0.36500
C2649       C  0.76072223  0.05026757  0.92388683    -0.27700
C2650       C  0.74570925  0.05160393  0.92543861     0.01900
C2651       C  0.73878353  0.03247775  0.94779345     0.30000
C2652       C  0.74675879  0.01175485  0.96761506    -0.19500
C2653       C  0.76180923  0.00993113  0.96602149    -0.28900
C2654       C  0.76875672  0.02976796  0.94387366     0.44000
C2655       C  0.73733393  0.07255148  0.90345549     0.05200
O2656       O  0.72418778  0.03412596  0.95063823    -0.57400
H2657       H  0.74110330  0.99733617  0.98456348     0.18100
O2658       O  0.78337536  0.02909126  0.94127019    -0.64100
H2659       H  0.76623760  0.06478740  0.90679382     0.16600
C2660       C  0.73901993  0.10940247  0.90095416     0.28800
C2661       C  0.73141074  0.12846265  0.87943762    -0.25000
C2662       C  0.72209756  0.11136912  0.85962869    -0.24300
C2663       C  0.72015690  0.07437460  0.86275000     0.40300
C2664       C  0.72766260  0.05547830  0.88457644    -0.26800
O2665       O  0.74789275  0.12716370  0.91988058    -0.58700
H2666       H  0.73314763  0.15671996  0.87783824     0.15900
O2667       O  0.71107368  0.05622414  0.84448047    -0.60100
H2668       H  0.72618081  0.02712638  0.88629408     0.14400
H2669       H  0.78540992  0.00975915  0.92722040     0.46200
H2670       H  0.75689499  0.13094228  0.90883974     0.41600
H2671       H  0.71734992  0.04421093  0.83009082     0.45100
H2672       H  0.72234210  0.05593604  0.96206680     0.36500
C2673       C  0.85576554  0.87180911  0.07622254    -0.27700
C2674       C  0.86633296  0.88350550  0.05681270     0.01900
C2675       C  0.86280899  0.90922028  0.03556221     0.30000
C2676       C  0.84864061  0.92140438  0.03289494    -0.19500
C2677       C  0.83776939  0.90832697  0.05133538    -0.28900
C2678       C  0.84161099  0.88394858  0.07369057     0.44000
C2679       C  0.88077350  0.86718636  0.05781964     0.05200
O2680       O  0.87295078  0.92093943  0.01613953    -0.57400
H2681       H  0.84604814  0.93976979  0.01534947     0.18100
O2682       O  0.83158676  0.87149212  0.09306024    -0.64100
H2683       H  0.85842383  0.85241379  0.09295418     0.16600
C2684       C  0.89242289  0.88497643  0.07047769     0.28800
C2685       C  0.90613811  0.87001153  0.06942185    -0.25000
C2686       C  0.90857878  0.83712525  0.05566526    -0.24300
C2687       C  0.89666513  0.81850188  0.04444719     0.40300
C2688       C  0.88293362  0.83360695  0.04555223    -0.26800
O2689       O  0.89059037  0.91756087  0.08306500    -0.58700
H2690       H  0.91497792  0.88509988  0.07836889     0.15900
O2691       O  0.89834100  0.78627598  0.03119158    -0.60100
H2692       H  0.87397072  0.81945973  0.03605584     0.14400
H2693       H  0.82948281  0.84698284  0.08666147     0.46200
H2694       H  0.88866437  0.91263989  0.10408227     0.41600
H2695       H  0.89734428  0.76864995  0.04722736     0.45100
H2696       H  0.87656568  0.94339137  0.02455413     0.36500
C2697       C  0.73255952  0.79755750  0.17454565    -0.27700
C2698       C  0.74760240  0.79822004  0.17692293     0.01900
C2699       C  0.75410152  0.77883670  0.19986548     0.30000
C2700       C  0.74567096  0.75886210  0.21937197    -0.19500
C2701       C  0.73061910  0.75778704  0.21683701    -0.28900
C2702       C  0.72411681  0.77768068  0.19412434     0.44000
C2703       C  0.75620367  0.81989183  0.15565606     0.05200
O2704       O  0.76861159  0.78085330  0.20441526    -0.57400
H2705       H  0.75099547  0.74453950  0.23693661     0.18100
O2706       O  0.70953306  0.77774448  0.19061082    -0.64100
H2707       H  0.72730625  0.81233828  0.15715168     0.16600
C2708       C  0.76729023  0.80510731  0.13856462     0.28800
C2709       C  0.77417642  0.82553442  0.11685544    -0.25000
C2710       C  0.77025531  0.86103562  0.11151174    -0.24300
C2711       C  0.75964484  0.87614317  0.12980997     0.40300
C2712       C  0.75271281  0.85562099  0.15121881    -0.26800
O2713       O  0.77112333  0.77030039  0.14197858    -0.58700
H2714       H  0.78223426  0.81299400  0.10337751     0.15900
O2715       O  0.75543817  0.91065660  0.12626882    -0.60100
H2716       H  0.74435561  0.86768424  0.16424348     0.14400
H2717       H  0.70749496  0.75801742  0.17693564     0.46200
H2718       H  0.76369465  0.75663511  0.13133558     0.41600
H2719       H  0.76144874  0.92430485  0.14018661     0.45100
H2720       H  0.77235928  0.75676225  0.20054462     0.36500
C2721       C  0.75660271  0.78443240  0.96274551    -0.27700
C2722       C  0.74600094  0.76937413  0.98049387     0.01900
C2723       C  0.73977660  0.78984538  0.00292810     0.30000
C2724       C  0.74530056  0.82334165  0.00937525    -0.19500
C2725       C  0.75690196  0.83676907  0.99342140    -0.28900
C2726       C  0.76194190  0.81799798  0.96882930     0.44000
C2727       C  0.74272091  0.73132726  0.97724231     0.05200
O2728       O  0.72892126  0.77645696  0.01981442    -0.57400
H2729       H  0.74130864  0.83741160  0.02834926     0.18100
O2730       O  0.77301909  0.83086545  0.95224023    -0.64100
H2731       H  0.76150233  0.76922628  0.94534377     0.16600
C2732       C  0.74002555  0.71656338  0.94941889     0.28800
C2733       C  0.73773953  0.68027571  0.94679422    -0.25000
C2734       C  0.73732977  0.65856597  0.97176594    -0.24300
C2735       C  0.74014187  0.67301419  0.99951332     0.40300
C2736       C  0.74311920  0.70908353  0.00206495    -0.26800
O2737       O  0.73893085  0.73756631  0.92488446    -0.58700
H2738       H  0.73508134  0.66957783  0.92543576     0.15900
O2739       O  0.73934916  0.65243502  0.02430176    -0.60100
H2740       H  0.74551845  0.71979863  0.02355254     0.14400
H2741       H  0.76838509  0.84297830  0.93535126     0.46200
H2742       H  0.72867663  0.74426444  0.92361618     0.41600
H2743       H  0.74885398  0.64078658  0.02596595     0.45100
H2744       H  0.71998558  0.78547557  0.01063467     0.36500
C2745       C  0.96932702  0.15930325  0.61237946    -0.27700
C2746       C  0.95858498  0.13424497  0.60660354     0.01900
C2747       C  0.94730997  0.14337965  0.58742504     0.30000
C2748       C  0.94664707  0.17716618  0.57507626    -0.19500
C2749       C  0.95731795  0.20250726  0.58075580    -0.28900
C2750       C  0.96886391  0.19305195  0.59933979     0.44000
C2751       C  0.95860555  0.09929412  0.62163322     0.05200
O2752       O  0.93685505  0.11932832  0.58044097    -0.57400
H2753       H  0.93784842  0.18316612  0.56030426     0.18100
O2754       O  0.97953129  0.21678071  0.60556945    -0.64100
H2755       H  0.97798956  0.15290842  0.62736735     0.16600
C2756       C  0.97046965  0.07629429  0.62071395     0.28800
C2757       C  0.96981966  0.04313310  0.63463897    -0.25000
C2758       C  0.95746394  0.03245421  0.64987925    -0.24300
C2759       C  0.94561096  0.05577778  0.65068720     0.40300
C2760       C  0.94629580  0.08863795  0.63673378    -0.26800
O2761       O  0.98255881  0.08551459  0.60552527    -0.58700
H2762       H  0.97909064  0.02593580  0.63374015     0.15900
O2763       O  0.93332559  0.04720852  0.66549602    -0.60100
H2764       H  0.93714302  0.10619610  0.63805524     0.14400
H2765       H  0.98740273  0.21089603  0.59186854     0.46200
H2766       H  0.98965911  0.09233546  0.62073862     0.41600
H2767       H  0.93446562  0.05781738  0.68525630     0.45100
H2768       H  0.94117807  0.10381003  0.56536202     0.36500
C2769       C  0.00303789  0.03220657  0.78657117    -0.27700
C2770       C  0.99528818  0.05308305  0.80634315     0.01900
C2771       C  0.98020051  0.05243769  0.80494367     0.30000
C2772       C  0.97315348  0.03138686  0.78397639    -0.19500
C2773       C  0.98089987  0.01009896  0.76429629    -0.28900
C2774       C  0.99605035  0.01076587  0.76592462     0.44000
C2775       C  0.00308258  0.07468653  0.82868303     0.05200
O2776       O  0.97221480  0.07174368  0.82436917    -0.57400
H2777       H  0.96155916  0.03123709  0.78353455     0.18100
O2778       O  0.00422468  0.99133167  0.74691201    -0.64100
H2779       H  0.01463575  0.03254846  0.78709839     0.16600
C2780       C  0.01299267  0.05886507  0.84809278     0.28800
C2781       C  0.02000652  0.07920095  0.86940398    -0.25000
C2782       C  0.01727243  0.11565266  0.87230424    -0.24300
C2783       C  0.00772119  0.13177905  0.85204467     0.40300
C2784       C  0.00068227  0.11129109  0.83070237    -0.26800
O2785       O  0.01556497  0.02317217  0.84707795    -0.58700
H2786       H  0.02720554  0.06586332  0.88451551     0.15900
O2787       O  0.00477187  0.16727783  0.85339090    -0.60100
H2788       H  0.99326383  0.12406366  0.81569151     0.14400
H2789       H  0.00695216  0.96971040  0.75800123     0.46200
H2790       H  0.00891757  0.01260515  0.86158310     0.41600
H2791       H  0.01181769  0.17862975  0.84014158     0.45100
H2792       H  0.97119788  0.05633757  0.84190963     0.36500
C2793       C  0.93847216  0.83364810  0.89008866    -0.27700
C2794       C  0.93182813  0.86619499  0.88447228     0.01900
C2795       C  0.92676166  0.88641902  0.90818446     0.30000
C2796       C  0.92887088  0.87447296  0.93710848    -0.19500
C2797       C  0.93601057  0.84239255  0.94283845    -0.28900
C2798       C  0.94064638  0.82172765  0.91881116     0.44000
C2799       C  0.93130841  0.87941249  0.85380784     0.05200
O2800       O  0.91945115  0.91739179  0.90318799    -0.57400
H2801       H  0.92503240  0.89057937  0.95506387     0.18100
O2802       O  0.94765570  0.79018071  0.92299372    -0.64100
H2803       H  0.94249196  0.81789841  0.87206397     0.16600
C2804       C  0.93827463  0.91102731  0.84605481     0.28800
C2805       C  0.93939415  0.92080483  0.81655580    -0.25000
C2806       C  0.93396658  0.89905700  0.79408984    -0.24300
C2807       C  0.92658252  0.86791351  0.80193362     0.40300
C2808       C  0.92535460  0.85827949  0.83157777    -0.26800
O2809       O  0.94475824  0.93158136  0.86699946    -0.58700
H2810       H  0.94522242  0.94474069  0.81127043     0.15900
O2811       O  0.92084543  0.84621278  0.78090845    -0.60100
H2812       H  0.92004017  0.83373939  0.83723213     0.14400
H2813       H  0.95799864  0.79610392  0.92256228     0.46200
H2814       H  0.95477457  0.92292854  0.86815898     0.41600
H2815       H  0.91129712  0.85640832  0.77637859     0.45100
H2816       H  0.92565824  0.93642927  0.91104890     0.36500
C2817       C  0.98179238  0.79996335  0.60201227    -0.27700
C2818       C  0.99044394  0.81731874  0.58132422     0.01900
C2819       C  0.99112968  0.85456694  0.58202084     0.30000
C2820       C  0.98367200  0.87354034  0.60368163    -0.19500
C2821       C  0.97544371  0.85614450  0.62520831    -0.28900
C2822       C  0.97436461  0.81884004  0.62369129     0.44000
C2823       C  0.99858957  0.79596601  0.55931667     0.05200
O2824       O  0.99866970  0.87271950  0.56101482    -0.57400
H2825       H  0.98458823  0.90209560  0.60386053     0.18100
O2826       O  0.96661046  0.80020100  0.64400962    -0.64100
H2827       H  0.98105372  0.77136414  0.60181947     0.16600
C2828       C  0.01356895  0.79893090  0.55631252     0.28800
C2829       C  0.02097628  0.77702150  0.53657511    -0.25000
C2830       C  0.01374670  0.75183294  0.51927150    -0.24300
C2831       C  0.99871598  0.74898372  0.52241472     0.40300
C2832       C  0.99135167  0.77082707  0.54216675    -0.26800
O2833       O  0.02116857  0.82182449  0.57372009    -0.58700
H2834       H  0.03248519  0.77981747  0.53495338     0.15900
O2835       O  0.99098619  0.72532694  0.50603062    -0.60100
H2836       H  0.97984907  0.76808032  0.54410545     0.14400
H2837       H  0.95696702  0.79744994  0.63512729     0.46200
H2838       H  0.02530625  0.83959833  0.56011698     0.41600
H2839       H  0.99066949  0.70342598  0.51806381     0.45100
H2840       H  0.00637233  0.88536358  0.57173389     0.36500
C2841       C  0.98607941  0.78453123  0.77210619    -0.27700
C2842       C  0.99701128  0.76979595  0.75511479     0.01900
C2843       C  0.00417037  0.79129428  0.73446009     0.30000
C2844       C  0.99906392  0.82535391  0.72833891    -0.19500
C2845       C  0.98705093  0.83841923  0.74311861    -0.28900
C2846       C  0.98132366  0.81880549  0.76679642     0.44000
C2847       C  0.99976727  0.73130584  0.75714819     0.05200
O2848       O  0.01552993  0.77840622  0.71878365    -0.57400
H2849       H  0.00371524  0.84014434  0.71033750     0.18100
O2850       O  0.96996652  0.83128187  0.78278717    -0.64100
H2851       H  0.98044631  0.76865887  0.78816543     0.16600
C2852       C  0.00106050  0.71413437  0.78456469     0.28800
C2853       C  0.00345936  0.67773004  0.78570995    -0.25000
C2854       C  0.00527313  0.65825939  0.75984844    -0.24300
C2855       C  0.00340076  0.67490934  0.73253554     0.40300
C2856       C  0.00035420  0.71108702  0.73131294    -0.26800
O2857       O  0.00066806  0.73282871  0.81032248    -0.58700
H2858       H  0.00516027  0.66526344  0.80689310     0.15900
O2859       O  0.00472798  0.65605891  0.70701366    -0.60100
H2860       H  0.99874873  0.72349537  0.71007741     0.14400
H2861       H  0.97404808  0.84966423  0.79583056     0.46200
H2862       H  0.01044474  0.74257869  0.81283347     0.41600
H2863       H  0.01455828  0.66096580  0.69994056     0.45100
H2864       H  0.02416475  0.78722066  0.72915452     0.36500
C2865       C  0.77519526  0.66191953  0.61378602    -0.27700
C2866       C  0.78125803  0.63285132  0.62870131     0.01900
C2867       C  0.78794367  0.63814546  0.65605120     0.30000
C2868       C  0.78900511  0.67214230  0.66755869    -0.19500
C2869       C  0.78312533  0.70123056  0.65258352    -0.28900
C2870       C  0.77600164  0.69601228  0.62570482     0.44000
C2871       C  0.78157929  0.59762954  0.61469191     0.05200
O2872       O  0.79350930  0.61021474  0.67167051    -0.57400
H2873       H  0.79423435  0.67573898  0.68863013     0.18100
O2874       O  0.77012911  0.72400283  0.61066078    -0.64100
H2875       H  0.77016503  0.65829990  0.59254070     0.16600
C2876       C  0.76900150  0.58100223  0.60484522     0.28800
C2877       C  0.76983765  0.54867511  0.59000472    -0.25000
C2878       C  0.78316817  0.53275220  0.58432275    -0.24300
C2879       C  0.79570646  0.54889157  0.59540985     0.40300
C2880       C  0.79481858  0.58103162  0.61028870    -0.26800
O2881       O  0.75585996  0.59595888  0.60995514    -0.58700
H2882       H  0.76003082  0.53677015  0.58202454     0.15900
O2883       O  0.80895933  0.53416684  0.59111311    -0.60100
H2884       H  0.80459937  0.59356720  0.61775421     0.14400
H2885       H  0.77820760  0.73485712  0.59982348     0.46200
H2886       H  0.75272465  0.60584142  0.59077430     0.41600
H2887       H  0.81080695  0.51957669  0.60886292     0.45100
H2888       H  0.78553999  0.60172272  0.68415959     0.36500
C2889       C  0.76520641  0.93670458  0.59634032    -0.27700
C2890       C  0.75541665  0.92038674  0.57727943     0.01900
C2891       C  0.75343102  0.88356362  0.57929196     0.30000
C2892       C  0.76099577  0.86379283  0.60037761    -0.19500
C2893       C  0.77047856  0.88013260  0.62027217    -0.28900
C2894       C  0.77254113  0.91713025  0.61791314     0.44000
C2895       C  0.74736529  0.94210928  0.55542781     0.05200
O2896       O  0.74438039  0.86654019  0.56020720    -0.57400
H2897       H  0.75910380  0.83556333  0.60154442     0.18100
O2898       O  0.78143511  0.93473102  0.63690630    -0.64100
H2899       H  0.76685684  0.96503258  0.59506380     0.16600
C2900       C  0.73228351  0.94293137  0.55509686     0.28800
C2901       C  0.72494855  0.96303644  0.53389391    -0.25000
C2902       C  0.73239905  0.98341974  0.51303772    -0.24300
C2903       C  0.74755161  0.98355624  0.51419830     0.40300
C2904       C  0.75485009  0.96285748  0.53505990    -0.26800
O2905       O  0.72458962  0.92460091  0.57571055    -0.58700
H2906       H  0.71335255  0.96298708  0.53407738     0.15900
O2907       O  0.75541208  0.00304115  0.49460319    -0.60100
H2908       H  0.76645123  0.96281452  0.53519338     0.14400
H2909       H  0.77514940  0.94304124  0.65298596     0.46200
H2910       H  0.72373605  0.94090019  0.59263063     0.41600
H2911       H  0.75737306  0.02574775  0.50469128     0.45100
H2912       H  0.73613008  0.85873719  0.57223848     0.36500
C2913       C  0.74206060  0.95502158  0.72118980    -0.27700
C2914       C  0.75034779  0.97972862  0.73682447     0.01900
C2915       C  0.76346733  0.96892963  0.74913215     0.30000
C2916       C  0.76809599  0.93427067  0.74587493    -0.19500
C2917       C  0.76030334  0.90985540  0.72889689    -0.28900
C2918       C  0.74701154  0.92037080  0.71688986     0.44000
C2919       C  0.74520234  0.01639605  0.74122310     0.05200
O2920       O  0.77217271  0.99243982  0.76353624    -0.57400
H2921       H  0.77836130  0.92726508  0.75542337     0.18100
O2922       O  0.73909621  0.89775913  0.69987028    -0.64100
H2923       H  0.73178283  0.96264948  0.71207336     0.16600
C2924       C  0.73995520  0.03717877  0.71776393     0.28800
C2925       C  0.73463504  0.07118706  0.72322719    -0.25000
C2926       C  0.73486947  0.08510028  0.75173133    -0.24300
C2927       C  0.74080838  0.06508760  0.77480748     0.40300
C2928       C  0.74560261  0.03080037  0.76958486    -0.26800
O2929       O  0.74018065  0.02469108  0.68951280    -0.58700
H2930       H  0.72995688  0.08634356  0.70536373     0.15900
O2931       O  0.74067252  0.07748168  0.80307543    -0.60100
H2932       H  0.74929966  0.01504286  0.78803323     0.14400
H2933       H  0.73271851  0.88521282  0.71379081     0.46200
H2934       H  0.73003286  0.02008326  0.68430313     0.41600
H2935       H  0.75058132  0.08563868  0.80697405     0.45100
H2936       H  0.77827703  0.00301466  0.74806165     0.36500
C2937       C  0.80941603  0.82543166  0.84325768    -0.27700
C2938       C  0.81441504  0.85970651  0.84887946     0.01900
C2939       C  0.81877428  0.88107398  0.82514761     0.30000
C2940       C  0.81711220  0.86898724  0.79626488    -0.19500
C2941       C  0.81112624  0.83563417  0.79046278    -0.28900
C2942       C  0.80769953  0.81332587  0.81446540     0.44000
C2943       C  0.81374734  0.87364464  0.87931524     0.05200
O2944       O  0.82482710  0.91360924  0.83009504    -0.57400
H2945       H  0.82015506  0.88631874  0.77836545     0.18100
O2946       O  0.80223985  0.78003982  0.81020646    -0.64100
H2947       H  0.80612630  0.80852227  0.86126202     0.16600
C2948       C  0.80599996  0.90473311  0.88545552     0.28800
C2949       C  0.80422423  0.91578272  0.91444771    -0.25000
C2950       C  0.80973921  0.89586196  0.93806753    -0.24300
C2951       C  0.81771830  0.86503806  0.93192052     0.40300
C2952       C  0.81961328  0.85411963  0.90276853    -0.26800
O2953       O  0.79948300  0.92368269  0.86339866    -0.58700
H2954       H  0.79792143  0.93934743  0.91843852     0.15900
O2955       O  0.82353005  0.84506449  0.95415800    -0.60100
H2956       H  0.82552016  0.83001827  0.89846681     0.14400
H2957       H  0.79170195  0.78273294  0.81174891     0.46200
H2958       H  0.79028048  0.91139970  0.85964051     0.41600
H2959       H  0.83340627  0.85418089  0.95673032     0.45100
H2960       H  0.81840501  0.93108737  0.82045903     0.36500
C2961       C  0.85547646  0.86255860  0.65118623    -0.27700
C2962       C  0.86600777  0.85009980  0.67061383     0.01900
C2963       C  0.86249637  0.82321367  0.69078081     0.30000
C2964       C  0.84835494  0.81099079  0.69275553    -0.19500
C2965       C  0.83749345  0.82522736  0.67474542    -0.28900
C2966       C  0.84136417  0.85013021  0.65288861     0.44000
C2967       C  0.88032651  0.86702131  0.67120863     0.05200
O2968       O  0.87254957  0.81084097  0.71030838    -0.57400
H2969       H  0.84573910  0.79205890  0.70980933     0.18100
O2970       O  0.83131926  0.86390322  0.63400210    -0.64100
H2971       H  0.85811887  0.88282920  0.63523407     0.16600
C2972       C  0.89254434  0.84865878  0.66194032     0.28800
C2973       C  0.90607574  0.86410365  0.66490028    -0.25000
C2974       C  0.90783533  0.89783199  0.67768542    -0.24300
C2975       C  0.89544693  0.91669093  0.68602047     0.40300
C2976       C  0.88185087  0.90132720  0.68255372    -0.26800
O2977       O  0.89142563  0.81499519  0.65104020    -0.58700
H2978       H  0.91528689  0.84865548  0.65832499     0.15900
O2979       O  0.89647153  0.94931691  0.69888423    -0.60100
H2980       H  0.87247833  0.91571679  0.68980633     0.14400
H2981       H  0.83048490  0.84635992  0.61795113     0.46200
H2982       H  0.89127109  0.81786371  0.62938932     0.41600
H2983       H  0.89673506  0.96638725  0.68231751     0.45100
H2984       H  0.87664845  0.78947201  0.70095907     0.36500
C2985       C  0.74000281  0.63532448  0.82793577    -0.27700
C2986       C  0.73773255  0.67200790  0.82696897     0.01900
C2987       C  0.72802190  0.68712669  0.84692711     0.30000
C2988       C  0.72109107  0.66583602  0.86782563    -0.19500
C2989       C  0.72378957  0.62918391  0.86970827    -0.28900
C2990       C  0.73319821  0.61400712  0.84892942     0.44000
C2991       C  0.74578402  0.69416161  0.80545321     0.05200
O2992       O  0.72564776  0.72293201  0.84697711    -0.57400
H2993       H  0.71404451  0.67847699  0.88344574     0.18100
O2994       O  0.73641727  0.57862000  0.84966326    -0.64100
H2995       H  0.74728723  0.62312511  0.81252519     0.16600
C2996       C  0.76086414  0.69339611  0.80449608     0.28800
C2997       C  0.76826337  0.71341640  0.78343453    -0.25000
C2998       C  0.76089009  0.73472194  0.76298068    -0.24300
C2999       C  0.74576335  0.73598879  0.76439210     0.40300
C3000       C  0.73838387  0.71574228  0.78534969    -0.26800
O3001       O  0.76848724  0.67417638  0.82484114    -0.58700
H3002       H  0.77985504  0.71244115  0.78332552     0.15900
O3003       O  0.73800456  0.75582662  0.74469786    -0.60100
H3004       H  0.72678979  0.71650192  0.78560219     0.14400
H3005       H  0.72922141  0.56729625  0.83669239     0.46200
H3006       H  0.77206253  0.65317281  0.81414218     0.41600
H3007       H  0.73583906  0.77822872  0.75506182     0.45100
H3008       H  0.73300582  0.73275579  0.86041133     0.36500
loop_ 
_geom_bond_atom_site_label_1 
_geom_bond_atom_site_label_2 
_geom_bond_distance 
_geom_bond_site_symmetry_2 
_ccdc_geom_bond_type 
Fe1          O17   2.037       .  S
Fe1           O7   2.102       .  S
Fe1          O14   2.116       .  S
Fe1           O6   2.039       .  S
Fe1          O12   1.934       .  S
Fe2           O5   2.021       .  S
Fe2           O9   2.095       .  S
Fe2          O13   2.045       .  S
Fe2          O18   2.104       .  S
Fe2          O12   1.928       .  S
Fe3          O21   2.108       .  S
Fe3           O8   2.053       .  S
Fe3          O15   2.060       .  S
Fe3           O4   2.096       .  S
Fe3          O12   1.945       .  S
O4           C11   1.277       .  A
O5           C19   1.261       .  A
O6           C11   1.269       .  A
O7           C10   1.278       .  A
O8           C20   1.270       .  A
O9           C22   1.274       .  A
C10          O15   1.271       .  A
C10        C2998   1.494       .  S
C11        C2869   1.468       .  S
O13          C16   1.268       .  A
O14          C16   1.281       .  A
C16        C2965   1.492       .  S
O17          C22   1.263       .  A
O18          C20   1.277       .  A
C19          O21   1.275       .  A
C19        C2917   1.481       .  S
C20        C2893   1.495       .  S
C22        C2941   1.487       .  S
Fe23         O39   2.036       .  S
Fe23         O29   2.111       .  S
Fe23         O36   2.129       .  S
Fe23         O28   2.043       .  S
Fe23         O34   1.937       .  S
Fe24         O27   2.007       .  S
Fe24         O31   2.105       .  S
Fe24         O35   2.030       .  S
Fe24         O40   2.104       .  S
Fe24         O34   1.930       .  S
Fe25         O43   2.106       .  S
Fe25         O30   2.066       .  S
Fe25         O37   2.057       .  S
Fe25         O26   2.101       .  S
Fe25         O34   1.941       .  S
O26          C33   1.280       .  A
O27          C41   1.261       .  A
O28          C33   1.271       .  A
O29          C32   1.278       .  A
O30          C42   1.271       .  A
O31          C44   1.275       .  A
C32          O37   1.269       .  A
C32        C2773   1.499   1_565  S
C33        C2758   1.488   1_565  S
O35          C38   1.264       .  A
O36          C38   1.282       .  A
C38        C2974   1.495       .  S
O39          C44   1.265       .  A
O40          C42   1.276       .  A
C41          O43   1.278       .  A
C41        C2845   1.471       .  S
C42        C2821   1.502       .  S
C44        C2806   1.486       .  S
Fe45         O61   2.045   1_554  S
Fe45         O51   2.097   1_554  S
Fe45         O58   2.111       .  S
Fe45         O50   2.054       .  S
Fe45         O56   1.952       .  S
Fe46         O49   2.023       .  S
Fe46         O53   2.103   1_554  S
Fe46         O57   2.049       .  S
Fe46         O62   2.108       .  S
Fe46         O56   1.948       .  S
Fe47         O65   2.096       .  S
Fe47         O52   2.065       .  S
Fe47         O59   2.066       .  S
Fe47         O48   2.098       .  S
Fe47         O56   1.952       .  S
O48          C55   1.280   1_565  A
O49          C63   1.264       .  A
O50          C55   1.274   1_565  A
O51          C54   1.273       .  A
O52          C64   1.270       .  A
O53          C66   1.277       .  A
C54          O59   1.269   1_556  A
C54        C2653   1.499   1_565  S
C55        C2638   1.493       .  S
O57          C60   1.266       .  A
O58          C60   1.277       .  A
C60        C2677   1.495       .  S
O61          C66   1.268       .  A
O62          C64   1.277       .  A
C63          O65   1.276       .  A
C63        C2725   1.470   1_554  S
C64        C2710   1.507       .  S
C66        C2950   1.487       .  S
Fe67         O83   2.036   1_554  S
Fe67         O73   2.098   1_554  S
Fe67         O80   2.120       .  S
Fe67         O72   2.044       .  S
Fe67         O78   1.938       .  S
Fe68         O71   2.006       .  S
Fe68         O75   2.101   1_554  S
Fe68         O79   2.033       .  S
Fe68         O84   2.096       .  S
Fe68         O78   1.927       .  S
Fe69         O87   2.107       .  S
Fe69         O74   2.070       .  S
Fe69         O81   2.059       .  S
Fe69         O70   2.097       .  S
Fe69         O78   1.944       .  S
O70          C77   1.280       .  A
O71          C85   1.261       .  A
O72          C77   1.272       .  A
O73          C76   1.275       .  A
O74          C86   1.272       .  A
O75          C88   1.276       .  A
C76          O81   1.269   1_556  A
C76        C2614   1.495       .  S
C77        C2542   1.485       .  S
O79          C82   1.263       .  A
O80          C82   1.279       .  A
C82        C2686   1.494       .  S
O83          C88   1.264       .  A
O84          C86   1.276       .  A
C85          O87   1.276       .  A
C85        C2581   1.473   1_554  S
C86        C2566   1.500       .  S
C88        C2797   1.486       .  S
Fe89        O105   2.109       .  S
Fe89         O95   2.050       .  S
Fe89        O102   2.043       .  S
Fe89         O94   2.115       .  S
Fe89        O100   1.941       .  S
Fe90         O93   2.090       .  S
Fe90         O97   2.036       .  S
Fe90        O101   2.072       .  S
Fe90        O106   2.039       .  S
Fe90        O100   1.928       .  S
Fe91        O109   2.067       .  S
Fe91         O96   2.093       .  S
Fe91        O103   2.085       .  S
Fe91         O92   2.058       .  S
Fe91        O100   1.947       .  S
O92          C99   1.273       .  A
O93         C107   1.275       .  A
O94          C99   1.282       .  A
O95          C98   1.266       .  A
O96         C108   1.270       .  A
O97         C110   1.268       .  A
C98         O103   1.274       .  A
C98        C2446   1.475       .  S
C99        C2518   1.501       .  S
O101        C104   1.270       .  A
O102        C104   1.265       .  A
C104       C2461   1.470       .  S
O105        C110   1.280       .  A
O106        C108   1.260       .  A
C107        O109   1.275       .  A
C107       C2605   1.494       .  S
C108       C2854   1.461       .  S
C110       C2485   1.491       .  S
Fe111       O127   2.111       .  S
Fe111       O117   2.034       .  S
Fe111       O124   2.028       .  S
Fe111       O116   2.100       .  S
Fe111       O122   1.937       .  S
Fe112       O115   2.088       .  S
Fe112       O119   2.035       .  S
Fe112       O123   2.090       .  S
Fe112       O128   2.013       .  S
Fe112       O122   1.935       .  S
Fe113       O131   2.065       .  S
Fe113       O118   2.126       .  S
Fe113       O125   2.121       .  S
Fe113       O114   2.069       .  S
Fe113       O122   1.943       .  S
O114        C121   1.270       .  A
O115        C129   1.273       .  A
O116        C121   1.275       .  A
O117        C120   1.270       .  A
O118        C130   1.282       .  A
O119        C132   1.265       .  A
C120        O125   1.284       .  A
C120       C2317   1.492       .  S
C121       C2413   1.501       .  S
O123        C126   1.273       .  A
O124        C126   1.264       .  A
C126       C2341   1.478       .  S
O127        C132   1.278       .  A
O128        C130   1.262       .  A
C129        O131   1.271       .  A
C129       C2389   1.497       .  S
C130       C2365   1.476       .  S
C132       C2494   1.490       .  S
Fe133       O149   2.093       .  S
Fe133       O139   2.042       .  S
Fe133       O146   2.038       .  S
Fe133       O138   2.098       .  S
Fe133       O144   1.947       .  S
Fe134       O137   2.086       .  S
Fe134       O141   2.045       .  S
Fe134       O145   2.083       .  S
Fe134       O150   2.036       .  S
Fe134       O144   1.940       .  S
Fe135       O153   2.064       .  S
Fe135       O140   2.093       .  S
Fe135       O147   2.085       .  S
Fe135       O136   2.068       .  S
Fe135       O144   1.946       .  S
O136        C143   1.271       .  A
O137        C151   1.273       .  A
O138        C143   1.276       .  A
O139        C142   1.268       .  A
O140        C152   1.274       .  A
O141        C154   1.267       .  A
C142        O147   1.277       .  A
C142       C2221   1.482       .  S
C143       C2830   1.501       .  S
O145        C148   1.272       .  A
O146        C148   1.267       .  A
C148       C2470   1.468       .  S
O149        C154   1.275       .  A
O150        C152   1.265       .  A
C151        O153   1.271       .  A
C151       C2269   1.490       .  S
C152       C2293   1.461       .  S
C154       C2254   1.486       .  S
Fe155       O171   2.103       .  S
Fe155       O161   2.035       .  S
Fe155       O168   2.035       .  S
Fe155       O160   2.094       .  S
Fe155       O166   1.930       .  S
Fe156       O159   2.107       .  S
Fe156       O163   2.039       .  S
Fe156       O167   2.089       .  S
Fe156       O172   2.036       .  S
Fe156       O166   1.925       .  S
Fe157       O175   2.055       .  S
Fe157       O162   2.105       .  S
Fe157       O169   2.107       .  S
Fe157       O158   2.064       .  S
Fe157       O166   1.934       .  S
O158        C165   1.270       .  A
O159        C173   1.279       .  A
O160        C165   1.275       .  A
O161        C164   1.267       .  A
O162        C174   1.275       .  A
O163        C176   1.267       .  A
C164        O169   1.279       .  A
C164       C2134   1.483       .  S
C165       C2149   1.475       .  S
O167        C170   1.274       .  A
O168        C170   1.264       .  A
C170       C2350   1.469       .  S
O171        C176   1.278       .  A
O172        C174   1.260       .  A
C173        O175   1.271       .  A
C173       C2182   1.495       .  S
C174       C2197   1.463       .  S
C176       C2245   1.482       .  S
Fe177       O193   2.114       .  S
Fe177       O183   2.055       .  S
Fe177       O190   2.042       .  S
Fe177       O182   2.106       .  S
Fe177       O188   1.939       .  S
Fe178       O181   2.105       .  S
Fe178       O185   2.045       .  S
Fe178       O189   2.085       .  S
Fe178       O194   2.039       .  S
Fe178       O188   1.931       .  S
Fe179       O197   2.063       .  S
Fe179       O184   2.090       .  S
Fe179       O191   2.085       .  S
Fe179       O180   2.054       .  S
Fe179       O188   1.941       .  S
O180        C187   1.271       .  A
O181        C195   1.278       .  A
O182        C187   1.279       .  A
O183        C186   1.269       .  A
O184        C196   1.272       .  A
O185        C198   1.268       .  A
C186        O191   1.274       .  A
C186       C2038   1.471       .  S
C187       C2110   1.493       .  S
O189        C192   1.273       .  A
O190        C192   1.265       .  A
C192       C2053   1.484       .  S
O193        C198   1.280       .  A
O194        C196   1.262       .  A
C195        O197   1.273       .  A
C195       C2662   1.500       .  S
C196       C2926   1.463       .  S
C198       C2077   1.492       .  S
Fe199       O215   2.106       .  S
Fe199       O205   2.036   1_545  S
Fe199       O212   2.034       .  S
Fe199       O204   2.095   1_545  S
Fe199       O210   1.935       .  S
Fe200       O203   2.109       .  S
Fe200       O207   2.049       .  S
Fe200       O211   2.104       .  S
Fe200       O216   2.033       .  S
Fe200       O210   1.929       .  S
Fe201       O219   2.057       .  S
Fe201       O206   2.085       .  S
Fe201       O213   2.081   1_545  S
Fe201       O202   2.057       .  S
Fe201       O210   1.946       .  S
O202        C209   1.270   1_545  A
O203        C217   1.280       .  A
O204        C209   1.276       .  A
O205        C208   1.268       .  A
O206        C218   1.271       .  A
O207        C220   1.268       .  A
C208        O213   1.274       .  A
C208       C1918   1.471       .  S
C209       C2005   1.490       .  S
O211        C214   1.276       .  A
O212        C214   1.264       .  A
C214       C1990   1.479       .  S
O215        C220   1.278       .  A
O216        C218   1.263       .  A
C217        O219   1.271       .  A
C217       C1966   1.498       .  S
C218       C1933   1.463       .  S
C220       C2086   1.487       .  S
Fe221       O237   2.108       .  S
Fe221       O227   2.052   1_545  S
Fe221       O234   2.041       .  S
Fe221       O226   2.095   1_545  S
Fe221       O232   1.936       .  S
Fe222       O225   2.089       .  S
Fe222       O229   2.040       .  S
Fe222       O233   2.085       .  S
Fe222       O238   2.030       .  S
Fe222       O232   1.937       .  S
Fe223       O241   2.060       .  S
Fe223       O228   2.089       .  S
Fe223       O235   2.091       .  S
Fe223       O224   2.060       .  S
Fe223       O232   1.945       .  S
O224        C231   1.269       .  A
O225        C239   1.274       .  A
O226        C231   1.276   1_565  A
O227        C230   1.272       .  A
O228        C240   1.274       .  A
O229        C242   1.268       .  A
C230        O235   1.277   1_565  A
C230       C1813   1.486       .  S
C231       C2902   1.495   1_545  S
O233        C236   1.270       .  A
O234        C236   1.265       .  A
C236       C2062   1.475       .  S
O237        C242   1.279       .  A
O238        C240   1.262       .  A
C239        O241   1.271       .  A
C239       C1870   1.493       .  S
C240       C1894   1.458       .  S
C242       C1846   1.492       .  S
Fe243       O259   2.118       .  S
Fe243       O249   2.045       .  S
Fe243       O256   2.041       .  S
Fe243       O248   2.098       .  S
Fe243       O254   1.938       .  S
Fe244       O247   2.100       .  S
Fe244       O251   2.035       .  S
Fe244       O255   2.093       .  S
Fe244       O260   2.028       .  S
Fe244       O254   1.931       .  S
Fe245       O263   2.066       .  S
Fe245       O250   2.092       .  S
Fe245       O257   2.086       .  S
Fe245       O246   2.065       .  S
Fe245       O254   1.943       .  S
O246        C253   1.271       .  A
O247        C261   1.277       .  A
O248        C253   1.277       .  A
O249        C252   1.271       .  A
O250        C262   1.274       .  A
O251        C264   1.266       .  A
C252        O257   1.275       .  A
C252       C1726   1.469       .  S
C253       C1741   1.498       .  S
O255        C258   1.273       .  A
O256        C258   1.266       .  A
C258       C1981   1.487       .  S
O259        C264   1.280       .  A
O260        C262   1.261       .  A
C261        O263   1.271       .  A
C261       C1774   1.500       .  S
C262       C1798   1.455       .  S
C264       C1837   1.493       .  S
Fe265       O281   2.132       .  S
Fe265       O271   2.039       .  S
Fe265       O278   2.031       .  S
Fe265       O270   2.120       .  S
Fe265       O276   1.936       .  S
Fe266       O269   2.092       .  S
Fe266       O273   2.032       .  S
Fe266       O277   2.099       .  S
Fe266       O282   2.010       .  S
Fe266       O276   1.930       .  S
Fe267       O285   2.059       .  S
Fe267       O272   2.115       .  S
Fe267       O279   2.106       .  S
Fe267       O268   2.057       .  S
Fe267       O276   1.943       .  S
O268        C275   1.269       .  A
O269        C283   1.274       .  A
O270        C275   1.280       .  A
O271        C274   1.270       .  A
O272        C284   1.279       .  A
O273        C286   1.263       .  A
C274        O279   1.280       .  A
C274       C1822   1.484       .  S
C275       C2701   1.501       .  S
O277        C280   1.275       .  A
O278        C280   1.264       .  A
C280       C1621   1.485       .  S
O281        C286   1.283       .  A
O282        C284   1.261       .  A
C283        O285   1.270       .  A
C283       C1678   1.495       .  S
C284       C1693   1.477       .  S
C286       C1654   1.493       .  S
Fe287       O303   2.120       .  S
Fe287       O293   2.035       .  S
Fe287       O300   2.033       .  S
Fe287       O292   2.114       .  S
Fe287       O298   1.937       .  S
Fe288       O291   2.094       .  S
Fe288       O295   2.037       .  S
Fe288       O299   2.095       .  S
Fe288       O304   2.012       .  S
Fe288       O298   1.931       .  S
Fe289       O307   2.048       .  S
Fe289       O294   2.118       .  S
Fe289       O301   2.103       .  S
Fe289       O290   2.056       .  S
Fe289       O298   1.939       .  S
O290        C297   1.267       .  A
O291        C305   1.273       .  A
O292        C297   1.278       .  A
O293        C296   1.270       .  A
O294        C306   1.281       .  A
O295        C308   1.263       .  A
C296        O301   1.281       .  A
C296       C1717   1.483       .  S
C297       C1573   1.500       .  S
O299        C302   1.276       .  A
O300        C302   1.266       .  A
C302       C1606   1.482       .  S
O303        C308   1.279       .  A
O304        C306   1.263       .  A
C305        O307   1.266       .  A
C305       C1558   1.491       .  S
C306       C1534   1.484       .  S
C308       C1645   1.493       .  S
Fe309       O325   2.110       .  S
Fe309       O315   2.040       .  S
Fe309       O322   2.038   1_556  S
Fe309       O314   2.104       .  S
Fe309       O320   1.932       .  S
Fe310       O313   2.109       .  S
Fe310       O317   2.044       .  S
Fe310       O321   2.090       .  S
Fe310       O326   2.035       .  S
Fe310       O320   1.926       .  S
Fe311       O329   2.060       .  S
Fe311       O316   2.094       .  S
Fe311       O323   2.091       .  S
Fe311       O312   2.061       .  S
Fe311       O320   1.943       .  S
O312        C319   1.271       .  A
O313        C327   1.280       .  A
O314        C319   1.279       .  A
O315        C318   1.266       .  A
O316        C328   1.271       .  A
O317        C330   1.268       .  A
C318        O323   1.276       .  A
C318       C2029   1.476       .  S
C319       C1501   1.496   1_556  S
O321        C324   1.274   1_556  A
O322        C324   1.264       .  A
C324       C1630   1.479       .  S
O325        C330   1.280       .  A
O326        C328   1.260       .  A
C327        O329   1.272       .  A
C327       C2989   1.499       .  S
C328       C2734   1.457       .  S
C330       C1477   1.492       .  S
Fe331       O347   2.106       .  S
Fe331       O337   2.042       .  S
Fe331       O344   2.035   1_556  S
Fe331       O336   2.102       .  S
Fe331       O342   1.940       .  S
Fe332       O335   2.113       .  S
Fe332       O339   2.051       .  S
Fe332       O343   2.098       .  S
Fe332       O348   2.036       .  S
Fe332       O342   1.936       .  S
Fe333       O351   2.070       .  S
Fe333       O338   2.076       .  S
Fe333       O345   2.074       .  S
Fe333       O334   2.062       .  S
Fe333       O342   1.945       .  S
O334        C341   1.271       .  A
O335        C349   1.279       .  A
O336        C341   1.278       .  A
O337        C340   1.268       .  A
O338        C350   1.270       .  A
O339        C352   1.270       .  A
C340        O345   1.273       .  A
C340       C1909   1.475       .  S
C341       C1405   1.499   1_556  S
O343        C346   1.273   1_556  A
O344        C346   1.263       .  A
C346       C1597   1.480       .  S
O347        C352   1.280       .  A
O348        C350   1.263       .  A
C349        O351   1.273       .  A
C349       C1453   1.508       .  S
C350       C1438   1.455       .  S
C352       C1486   1.487       .  S
Fe353       O369   2.034       .  S
Fe353       O359   2.105       .  S
Fe353       O366   2.121       .  S
Fe353       O358   2.037       .  S
Fe353       O364   1.935       .  S
Fe354       O357   2.009       .  S
Fe354       O361   2.111       .  S
Fe354       O365   2.044       .  S
Fe354       O370   2.110       .  S
Fe354       O364   1.924       .  S
Fe355       O373   2.124       .  S
Fe355       O360   2.064       .  S
Fe355       O367   2.057       .  S
Fe355       O356   2.113       .  S
Fe355       O364   1.944       .  S
O356        C363   1.282       .  A
O357        C371   1.260       .  A
O358        C363   1.271       .  A
O359        C362   1.277       .  A
O360        C372   1.270       .  A
O361        C374   1.278       .  A
C362        O367   1.269       .  A
C362       C2173   1.493       .  S
C363       C1285   1.484       .  S
O365        C368   1.266       .  A
O366        C368   1.280       .  A
C368       C1390   1.492       .  S
O369        C374   1.265       .  A
O370        C372   1.279       .  A
C371        O373   1.280       .  A
C371       C1309   1.485       .  S
C372       C1333   1.494       .  S
C374       C1357   1.488       .  S
Fe375       O391   2.052       .  S
Fe375       O381   2.102       .  S
Fe375       O388   2.118       .  S
Fe375       O380   2.063       .  S
Fe375       O386   1.944       .  S
Fe376       O379   2.037       .  S
Fe376       O383   2.092       .  S
Fe376       O387   2.043       .  S
Fe376       O392   2.102       .  S
Fe376       O386   1.934       .  S
Fe377       O395   2.099       .  S
Fe377       O382   2.067       .  S
Fe377       O389   2.068       .  S
Fe377       O378   2.084       .  S
Fe377       O386   1.948       .  S
O378        C385   1.274   1_565  A
O379        C393   1.262       .  A
O380        C385   1.272   1_565  A
O381        C384   1.279       .  A
O382        C394   1.273       .  A
O383        C396   1.274       .  A
C384        O389   1.274       .  A
C384       C1765   1.497   1_565  S
C385       C1246   1.489       .  S
O387        C390   1.268       .  A
O388        C390   1.280       .  A
C390       C1381   1.496       .  S
O391        C396   1.267       .  A
O392        C394   1.277       .  A
C393        O395   1.273       .  A
C393       C1525   1.470       .  S
C394       C1414   1.500       .  S
C396       C1261   1.489       .  S
Fe397       O413   2.048       .  S
Fe397       O403   2.094       .  S
Fe397       O410   2.103       .  S
Fe397       O402   2.041       .  S
Fe397       O408   1.938       .  S
Fe398       O401   2.010       .  S
Fe398       O405   2.103       .  S
Fe398       O409   2.039       .  S
Fe398       O414   2.103       .  S
Fe398       O408   1.931       .  S
Fe399       O417   2.111       .  S
Fe399       O404   2.054       .  S
Fe399       O411   2.049       .  S
Fe399       O400   2.098       .  S
Fe399       O408   1.941       .  S
O400        C407   1.280       .  A
O401        C415   1.263       .  A
O402        C407   1.270       .  A
O403        C406   1.274       .  A
O404        C416   1.266       .  A
O405        C418   1.276       .  A
C406        O411   1.266       .  A
C406       C1189   1.486   1_565  S
C407       C1165   1.486   1_565  S
O409        C412   1.267       .  A
O410        C412   1.277       .  A
C412       C1222   1.487       .  S
O413        C418   1.267       .  A
O414        C416   1.276       .  A
C415        O417   1.279       .  A
C415       C2206   1.472       .  S
C416       C2422   1.499       .  S
C418       C1366   1.493       .  S
Fe419       O435   2.052       .  S
Fe419       O425   2.097       .  S
Fe419       O432   2.126       .  S
Fe419       O424   2.060       .  S
Fe419       O430   1.931       .  S
Fe420       O423   2.014       .  S
Fe420       O427   2.086       .  S
Fe420       O431   2.023       .  S
Fe420       O436   2.088       .  S
Fe420       O430   1.921       .  S
Fe421       O439   2.113       .  S
Fe421       O426   2.056       .  S
Fe421       O433   2.048       .  S
Fe421       O422   2.101       .  S
Fe421       O430   1.933       .  S
O422        C429   1.280       .  A
O423        C437   1.260       .  A
O424        C429   1.275       .  A
O425        C428   1.276       .  A
O426        C438   1.270       .  A
O427        C440   1.271       .  A
C428        O433   1.269       .  A
C428       C1549   1.484       .  S
C429       C1141   1.488       .  S
O431        C434   1.261       .  A
O432        C434   1.282       .  A
C434       C1213   1.490       .  S
O435        C440   1.267       .  A
O436        C438   1.274       .  A
C437        O439   1.277       .  A
C437       C1789   1.477       .  S
C438       C2014   1.490       .  S
C440       C1270   1.481       .  S
Fe441       O457   2.046       .  S
Fe441       O447   2.092       .  S
Fe441       O454   2.116       .  S
Fe441       O446   2.055       .  S
Fe441       O452   1.937       .  S
Fe442       O445   2.037       .  S
Fe442       O449   2.096       .  S
Fe442       O453   2.048       .  S
Fe442       O458   2.103       .  S
Fe442       O452   1.937       .  S
Fe443       O461   2.093       .  S
Fe443       O448   2.061       .  S
Fe443       O455   2.059       .  S
Fe443       O444   2.093       .  S
Fe443       O452   1.948       .  S
O444        C451   1.276       .  A
O445        C459   1.261       .  A
O446        C451   1.273       .  A
O447        C450   1.275       .  A
O448        C460   1.272       .  A
O449        C462   1.273       .  A
C450        O455   1.271       .  A
C450       C1861   1.489       .  S
C451       C2629   1.485       .  S
O453        C456   1.268       .  A
O454        C456   1.280       .  A
C456       C1126   1.493       .  S
O457        C462   1.266       .  A
O458        C460   1.278       .  A
C459        O461   1.273       .  A
C459       C1702   1.462       .  S
C460       C1510   1.499       .  S
C462       C1093   1.481       .  S
Fe463       O479   2.041       .  S
Fe463       O469   2.097       .  S
Fe463       O476   2.107       .  S
Fe463       O468   2.037       .  S
Fe463       O474   1.944       .  S
Fe464       O467   2.022       .  S
Fe464       O471   2.116       .  S
Fe464       O475   2.056       .  S
Fe464       O480   2.099       .  S
Fe464       O474   1.944       .  S
Fe465       O483   2.102       .  S
Fe465       O470   2.054       .  S
Fe465       O477   2.059       .  S
Fe465       O466   2.117       .  S
Fe465       O474   1.948       .  S
O466        C473   1.284       .  A
O467        C481   1.264       .  A
O468        C473   1.273       .  A
O469        C472   1.270       .  A
O470        C482   1.269       .  A
O471        C484   1.280       .  A
C472        O477   1.263       .  A
C472       C2278   1.482       .  S
C473       C2533   1.477       .  S
O475        C478   1.263       .  A
O476        C478   1.275       .  A
C478       C1117   1.489       .  S
O479        C484   1.270       .  A
O480        C482   1.276       .  A
C481        O483   1.276       .  A
C481       C1054   1.478       .  S
C482       C1078   1.487       .  S
C484       C1021   1.482       .  S
Fe485       O501   2.040       .  S
Fe485       O491   2.102       .  S
Fe485       O498   2.116       .  S
Fe485       O490   2.046       .  S
Fe485       O496   1.941       .  S
Fe486       O489   2.005       .  S
Fe486       O493   2.106       .  S
Fe486       O497   2.037       .  S
Fe486       O502   2.101       .  S
Fe486       O496   1.932       .  S
Fe487       O505   2.104       .  S
Fe487       O492   2.056       .  S
Fe487       O499   2.055       .  S
Fe487       O488   2.096       .  S
Fe487       O496   1.941       .  S
O488        C495   1.280       .  A
O489        C503   1.262       .  A
O490        C495   1.273       .  A
O491        C494   1.275       .  A
O492        C504   1.268       .  A
O493        C506   1.278       .  A
C494        O499   1.267       .  A
C494       C1669   1.492       .  S
C495       C2878   1.484       .  S
O497        C500   1.263       .  A
O498        C500   1.278       .  A
C500        C997   1.486       .  S
O501        C506   1.267       .  A
O502        C504   1.276       .  A
C503        O505   1.277       .  A
C503       C1885   1.474       .  S
C504       C2101   1.499       .  S
C506       C1102   1.491       .  S
Fe507       O523   2.053       .  S
Fe507       O513   2.102       .  S
Fe507       O520   2.119       .  S
Fe507       O512   2.050       .  S
Fe507       O518   1.940       .  S
Fe508       O511   2.016       .  S
Fe508       O515   2.102       .  S
Fe508       O519   2.040       .  S
Fe508       O524   2.106       .  S
Fe508       O518   1.936       .  S
Fe509       O527   2.111       .  S
Fe509       O514   2.061       .  S
Fe509       O521   2.050       .  S
Fe509       O510   2.102       .  S
Fe509       O518   1.947       .  S
O510        C517   1.278       .  A
O511        C525   1.262       .  A
O512        C517   1.272       .  A
O513        C516   1.277       .  A
O514        C526   1.269       .  A
O515        C528   1.275       .  A
C516        O521   1.268       .  A
C516        C973   1.492       .  S
C517       C2749   1.489       .  S
O519        C522   1.267       .  A
O520        C522   1.281       .  A
C522       C1006   1.494       .  S
O523        C528   1.267       .  A
O524        C526   1.276       .  A
C525        O527   1.278       .  A
C525       C2302   1.478       .  S
C526       C2509   1.500       .  S
C528       C1030   1.496       .  S
Fe529       O545   2.110       .  S
Fe529       O535   2.041   1_545  S
Fe529       O542   2.054       .  S
Fe529       O534   2.109   1_545  S
Fe529       O540   1.937       .  S
Fe530       O533   2.085       .  S
Fe530       O537   2.038       .  S
Fe530       O541   2.067       .  S
Fe530       O546   2.030       .  S
Fe530       O540   1.930       .  S
Fe531       O549   2.065       .  S
Fe531       O536   2.106       .  S
Fe531       O543   2.092       .  S
Fe531       O532   2.068       .  S
Fe531       O540   1.954       .  S
O532        C539   1.275       .  A
O533        C547   1.274       .  A
O534        C539   1.280   1_565  A
O535        C538   1.266       .  A
O536        C548   1.274       .  A
O537        C550   1.267       .  A
C538        O543   1.275   1_565  A
C538       C2230   1.479       .  S
C539       C2557   1.502   1_545  S
O541        C544   1.268       .  A
O542        C544   1.266       .  A
C544        C925   1.473       .  S
O545        C550   1.281       .  A
O546        C548   1.258       .  A
C547        O549   1.273       .  A
C547        C982   1.492       .  S
C548       C1045   1.467       .  S
C550        C949   1.491       .  S
Fe551       O567   2.098       .  S
Fe551       O557   2.049       .  S
Fe551       O564   2.049       .  S
Fe551       O556   2.096       .  S
Fe551       O562   1.939       .  S
Fe552       O555   2.101       .  S
Fe552       O559   2.045       .  S
Fe552       O563   2.086       .  S
Fe552       O568   2.030       .  S
Fe552       O562   1.936       .  S
Fe553       O571   2.056       .  S
Fe553       O558   2.095       .  S
Fe553       O565   2.088       .  S
Fe553       O554   2.056       .  S
Fe553       O562   1.948       .  S
O554        C561   1.272       .  A
O555        C569   1.278       .  A
O556        C561   1.277       .  A
O557        C560   1.268       .  A
O558        C570   1.272       .  A
O559        C572   1.269       .  A
C560        O565   1.274       .  A
C560       C2125   1.484       .  S
C561        C877   1.494       .  S
O563        C566   1.272       .  A
O564        C566   1.265       .  A
C566        C901   1.488       .  S
O567        C572   1.279       .  A
O568        C570   1.260       .  A
C569        O571   1.271       .  A
C569       C1198   1.495       .  S
C570       C1318   1.461       .  S
C572        C958   1.490       .  S
Fe573       O589   2.112       .  S
Fe573       O579   2.056       .  S
Fe573       O586   2.055   1_556  S
Fe573       O578   2.107       .  S
Fe573       O584   1.939       .  S
Fe574       O577   2.101       .  S
Fe574       O581   2.044       .  S
Fe574       O585   2.081       .  S
Fe574       O590   2.038       .  S
Fe574       O584   1.926       .  S
Fe575       O593   2.060       .  S
Fe575       O580   2.092       .  S
Fe575       O587   2.087       .  S
Fe575       O576   2.053       .  S
Fe575       O584   1.943       .  S
O576        C583   1.269       .  A
O577        C591   1.279       .  A
O578        C583   1.279       .  A
O579        C582   1.271       .  A
O580        C592   1.271       .  A
O581        C594   1.268       .  A
C582        O587   1.275       .  A
C582       C2437   1.483       .  S
C583       C1069   1.484   1_556  S
O585        C588   1.272   1_556  A
O586        C588   1.269       .  A
C588        C934   1.480       .  S
O589        C594   1.279       .  A
O590        C592   1.260       .  A
C591        O593   1.272       .  A
C591       C2782   1.497       .  S
C592       C2590   1.462       .  S
C594        C853   1.495       .  S
Fe595       O611   2.107       .  S
Fe595       O601   2.058   1_545  S
Fe595       O608   2.057   1_556  S
Fe595       O600   2.102   1_545  S
Fe595       O606   1.944       .  S
Fe596       O599   2.090       .  S
Fe596       O603   2.042       .  S
Fe596       O607   2.078       .  S
Fe596       O612   2.038       .  S
Fe596       O606   1.934       .  S
Fe597       O615   2.060       .  S
Fe597       O602   2.100       .  S
Fe597       O609   2.091   1_545  S
Fe597       O598   2.068       .  S
Fe597       O606   1.950       .  S
O598        C605   1.274       .  A
O599        C613   1.275       .  A
O600        C605   1.279   1_565  A
O601        C604   1.271       .  A
O602        C614   1.272       .  A
O603        C616   1.267       .  A
C604        O609   1.274       .  A
C604       C2326   1.489       .  S
C605       C1342   1.499   1_546  S
O607        C610   1.271   1_556  A
O608        C610   1.268       .  A
C610        C910   1.476       .  S
O611        C616   1.279       .  A
O612        C614   1.261       .  A
C613        O615   1.273       .  A
C613        C829   1.492       .  S
C614        C814   1.464       .  S
C616        C862   1.490       .  S
Fe617       O633   2.031       .  S
Fe617       O623   2.095       .  S
Fe617       O630   2.107       .  S
Fe617       O622   2.046       .  S
Fe617       O628   1.946       .  S
Fe618       O621   2.045       .  S
Fe618       O625   2.102       .  S
Fe618       O629   2.058       .  S
Fe618       O634   2.097       .  S
Fe618       O628   1.942       .  S
Fe619       O637   2.095       .  S
Fe619       O624   2.056       .  S
Fe619       O631   2.058       .  S
Fe619       O620   2.092       .  S
Fe619       O628   1.953       .  S
O620        C627   1.276       .  A
O621        C635   1.265       .  A
O622        C627   1.270       .  A
O623        C626   1.275       .  A
O624        C636   1.271       .  A
O625        C638   1.275       .  A
C626        O631   1.270       .  A
C626        C838   1.491       .  S
C627       C1174   1.479       .  S
O629        C632   1.268       .  A
O630        C632   1.277       .  A
C632        C790   1.486       .  S
O633        C638   1.264       .  A
O634        C636   1.277       .  A
C635        O637   1.273       .  A
C635       C2374   1.465       .  S
C636       C2158   1.485       .  S
C638        C766   1.476       .  S
Fe639       O655   2.051       .  S
Fe639       O645   2.115       .  S
Fe639       O652   2.125       .  S
Fe639       O644   2.059       .  S
Fe639       O650   1.931       .  S
Fe640       O643   2.016       .  S
Fe640       O647   2.098       .  S
Fe640       O651   2.042       .  S
Fe640       O656   2.107       .  S
Fe640       O650   1.928       .  S
Fe641       O659   2.117       .  S
Fe641       O646   2.063       .  S
Fe641       O653   2.067       .  S
Fe641       O642   2.103       .  S
Fe641       O650   1.944       .  S
O642        C649   1.278       .  A
O643        C657   1.259       .  A
O644        C649   1.272       .  A
O645        C648   1.281       .  A
O646        C658   1.271       .  A
O647        C660   1.274       .  A
C648        O653   1.272       .  A
C648       C1462   1.505       .  S
C649       C1150   1.480       .  S
O651        C654   1.267       .  A
O652        C654   1.282       .  A
C654        C781   1.497       .  S
O655        C660   1.268       .  A
O656        C658   1.278       .  A
C657        O659   1.277       .  A
C657       C1942   1.483       .  S
C658       C1750   1.494       .  S
C660        C733   1.491       .  S
Fe661       O677   2.042   1_554  S
Fe661       O667   2.100       .  S
Fe661       O674   2.115       .  S
Fe661       O666   2.044       .  S
Fe661       O672   1.938       .  S
Fe662       O665   2.023       .  S
Fe662       O669   2.092   1_554  S
Fe662       O673   2.052       .  S
Fe662       O678   2.094       .  S
Fe662       O672   1.941       .  S
Fe663       O681   2.108       .  S
Fe663       O668   2.058       .  S
Fe663       O675   2.055       .  S
Fe663       O664   2.104       .  S
Fe663       O672   1.954       .  S
O664        C671   1.279       .  A
O665        C679   1.264       .  A
O666        C671   1.270       .  A
O667        C670   1.276   1_554  A
O668        C680   1.269       .  A
O669        C682   1.274       .  A
C670        O675   1.268   1_556  A
C670       C2398   1.494       .  S
C671       C1294   1.489       .  S
O673        C676   1.269       .  A
O674        C676   1.279       .  A
C676        C709   1.500       .  S
O677        C682   1.265       .  A
O678        C680   1.275       .  A
C679        O681   1.278       .  A
C679        C805   1.475   1_554  S
C680        C886   1.492       .  S
C682        C757   1.487       .  S
Fe683       O699   2.044   1_554  S
Fe683       O689   2.116   1_554  S
Fe683       O696   2.123       .  S
Fe683       O688   2.055       .  S
Fe683       O694   1.945       .  S
Fe684       O687   2.012   1_554  S
Fe684       O691   2.105   1_554  S
Fe684       O695   2.043       .  S
Fe684       O700   2.107       .  S
Fe684       O694   1.937       .  S
Fe685       O703   2.102       .  S
Fe685       O690   2.066       .  S
Fe685       O697   2.052   1_554  S
Fe685       O686   2.099       .  S
Fe685       O694   1.945       .  S
O686        C693   1.279       .  A
O687        C701   1.260   1_556  A
O688        C693   1.273       .  A
O689        C692   1.277       .  A
O690        C702   1.271       .  A
O691        C704   1.277       .  A
C692        O697   1.266       .  A
C692       C1957   1.496       .  S
C693       C1237   1.470       .  S
O695        C698   1.264       .  A
O696        C698   1.280       .  A
C698        C718   1.498       .  S
O699        C704   1.268       .  A
O700        C702   1.278       .  A
C701        O703   1.277       .  A
C701       C1429   1.475   1_554  S
C702       C1582   1.504       .  S
C704        C742   1.489       .  S
C705        C706   1.403       .  A
C705        C710   1.406       .  A
C705        H715   1.084       .  S
C706        C711   1.488       .  S
C706        C707   1.405       .  A
C707        C708   1.405       .  A
C707        O712   1.371       .  S
C708        C709   1.412       .  A
C708        H713   1.083       .  S
C709        C710   1.416       .  A
C710        O714   1.371       .  S
C711        C716   1.407       .  A
C711        C720   1.401       .  A
O712        H728   0.992       .  S
O714        H725   0.992       .  S
C716        C717   1.404       .  A
C716        O721   1.371       .  S
C717        C718   1.408       .  A
C717        H722   1.083       .  S
C718        C719   1.419       .  A
C719        C720   1.407       .  A
C719        O723   1.372       .  S
C720        H724   1.084       .  S
O721        H726   0.992       .  S
O723        H727   0.992       .  S
C729        C730   1.404       .  A
C729        C734   1.402       .  A
C729        H739   1.084       .  S
C730        C735   1.486       .  S
C730        C731   1.407       .  A
C731        C732   1.401       .  A
C731        O736   1.372       .  S
C732        C733   1.409       .  A
C732        H737   1.083       .  S
C733        C734   1.413       .  A
C734        O738   1.371       .  S
C735        C740   1.409       .  A
C735        C744   1.401       .  A
O736        H752   0.992       .  S
O738        H749   0.992       .  S
C740        C741   1.404       .  A
C740        O745   1.371       .  S
C741        C742   1.408       .  A
C741        H746   1.083       .  S
C742        C743   1.415       .  A
C743        C744   1.397       .  A
C743        O747   1.372       .  S
C744        H748   1.084       .  S
O745        H750   0.991       .  S
O747        H751   0.992       .  S
C753        C754   1.400       .  A
C753        C758   1.398       .  A
C753        H763   1.084       .  S
C754        C759   1.480       .  S
C754        C755   1.407       .  A
C755        C756   1.402       .  A
C755        O760   1.373       .  S
C756        C757   1.407       .  A
C756        H761   1.083       .  S
C757        C758   1.416       .  A
C758        O762   1.372       .  S
C759        C764   1.407       .  A
C759        C768   1.406       .  A
O760        H776   0.992       .  S
O762        H773   0.992       .  S
C764        C765   1.393       .  A
C764        O769   1.372       .  S
C765        C766   1.404       .  A
C765        H770   1.084       .  S
C766        C767   1.409       .  A
C767        C768   1.405       .  A
C767        O771   1.372       .  S
C768        H772   1.083       .  S
O769        H774   0.992       .  S
O771        H775   0.992       .  S
C777        C778   1.404       .  A
C777        C782   1.403       .  A
C777        H787   1.084       .  S
C778        C783   1.491       .  S
C778        C779   1.407       .  A
C779        C780   1.406       .  A
C779        O784   1.372       .  S
C780        C781   1.413       .  A
C780        H785   1.083       .  S
C781        C782   1.413       .  A
C782        O786   1.371       .  S
C783        C788   1.410       .  A
C783        C792   1.405       .  A
O784        H800   0.992       .  S
O786        H797   0.992       .  S
C788        C789   1.402       .  A
C788        O793   1.372       .  S
C789        C790   1.404       .  A
C789        H794   1.084       .  S
C790        C791   1.412       .  A
C791        C792   1.408       .  A
C791        O795   1.372       .  S
C792        H796   1.083       .  S
O793        H798   0.992       .  S
O795        H799   0.992       .  S
C801        C802   1.402       .  A
C801        C806   1.395       .  A
C801        H811   1.083       .  S
C802        C807   1.486       .  S
C802        C803   1.414   1_556  A
C803        C804   1.401       .  A
C803        O808   1.371       .  S
C804        C805   1.401   1_554  A
C804        H809   1.084       .  S
C805        C806   1.413       .  A
C806        O810   1.373       .  S
C807        C812   1.411       .  A
C807        C816   1.408   1_556  A
O808        H824   0.992       .  S
O810        H821   0.992       .  S
C812        C813   1.400       .  A
C812        O817   1.372       .  S
C813        C814   1.403       .  A
C813        H818   1.083       .  S
C814        C815   1.402       .  A
C815        C816   1.397   1_556  A
C815        O819   1.371   1_556  S
C816        H820   1.083       .  S
O817        H822   0.991       .  S
O819        H823   0.992       .  S
C825        C826   1.403       .  A
C825        C830   1.402       .  A
C825        H835   1.083       .  S
C826        C831   1.487       .  S
C826        C827   1.407       .  A
C827        C828   1.401       .  A
C827        O832   1.372       .  S
C828        C829   1.408       .  A
C828        H833   1.083       .  S
C829        C830   1.416       .  A
C830        O834   1.373       .  S
C831        C836   1.406       .  A
C831        C840   1.405       .  A
O832        H848   0.992       .  S
O834        H845   0.992       .  S
C836        C837   1.401       .  A
C836        O841   1.372       .  S
C837        C838   1.408       .  A
C837        H842   1.083       .  S
C838        C839   1.414       .  A
C839        C840   1.404       .  A
C839        O843   1.372       .  S
C840        H844   1.084       .  S
O841        H846   0.992       .  S
O843        H847   0.992       .  S
C849        C850   1.402       .  A
C849        C854   1.404       .  A
C849        H859   1.084       .  S
C850        C855   1.481       .  S
C850        C851   1.402       .  A
C851        C852   1.401       .  A
C851        O856   1.372       .  S
C852        C853   1.412       .  A
C852        H857   1.083       .  S
C853        C854   1.415       .  A
C854        O858   1.371       .  S
C855        C860   1.403       .  A
C855        C864   1.402       .  A
O856        H872   0.992       .  S
O858        H869   0.992       .  S
C860        C861   1.401       .  A
C860        O865   1.372       .  S
C861        C862   1.411       .  A
C861        H866   1.083       .  S
C862        C863   1.414       .  A
C863        C864   1.403       .  A
C863        O867   1.372       .  S
C864        H868   1.084       .  S
O865        H870   0.992       .  S
O867        H871   0.992       .  S
C873        C874   1.404       .  A
C873        C878   1.404       .  A
C873        H883   1.084       .  S
C874        C879   1.488       .  S
C874        C875   1.406       .  A
C875        C876   1.401       .  A
C875        O880   1.373       .  S
C876        C877   1.409       .  A
C876        H881   1.083       .  S
C877        C878   1.415       .  A
C878        O882   1.372       .  S
C879        C884   1.408       .  A
C879        C888   1.403       .  A
O880        H896   0.992       .  S
O882        H893   0.992       .  S
C884        C885   1.402       .  A
C884        O889   1.372       .  S
C885        C886   1.408       .  A
C885        H890   1.083       .  S
C886        C887   1.415       .  A
C887        C888   1.403       .  A
C887        O891   1.371       .  S
C888        H892   1.084       .  S
O889        H894   0.992       .  S
O891        H895   0.992       .  S
C897        C898   1.405       .  A
C897        C902   1.399       .  A
C897        H907   1.084       .  S
C898        C903   1.490       .  S
C898        C899   1.411       .  A
C899        C900   1.403       .  A
C899        O904   1.372       .  S
C900        C901   1.406       .  A
C900        H905   1.083       .  S
C901        C902   1.413       .  A
C902        O906   1.372       .  S
C903        C908   1.413       .  A
C903        C912   1.404       .  A
O904        H920   0.992       .  S
O906        H917   0.991       .  S
C908        C909   1.405       .  A
C908        O913   1.371       .  S
C909        C910   1.405       .  A
C909        H914   1.084       .  S
C910        C911   1.407       .  A
C911        C912   1.395       .  A
C911        O915   1.372       .  S
C912        H916   1.083       .  S
O913        H918   0.992       .  S
O915        H919   0.992       .  S
C921        C922   1.406       .  A
C921        C926   1.402       .  A
C921        H931   1.084       .  S
C922        C927   1.482       .  S
C922        C923   1.408       .  A
C923        C924   1.396       .  A
C923        O928   1.373       .  S
C924        C925   1.402       .  A
C924        H929   1.084       .  S
C925        C926   1.408       .  A
C926        O930   1.372       .  S
C927        C932   1.409       .  A
C927        C936   1.402       .  A
O928        H944   0.992       .  S
O930        H941   0.992       .  S
C932        C933   1.400       .  A
C932        O937   1.371       .  S
C933        C934   1.405       .  A
C933        H938   1.084       .  S
C934        C935   1.412       .  A
C935        C936   1.397       .  A
C935        O939   1.372       .  S
C936        H940   1.084       .  S
O937        H942   0.992       .  S
O939        H943   0.992       .  S
C945        C946   1.401       .  A
C945        C950   1.401       .  A
C945        H955   1.084       .  S
C946        C951   1.484       .  S
C946        C947   1.409       .  A
C947        C948   1.399       .  A
C947        O952   1.372       .  S
C948        C949   1.405       .  A
C948        H953   1.083       .  S
C949        C950   1.419       .  A
C950        O954   1.372       .  S
C951        C956   1.408       .  A
C951        C960   1.401       .  A
O952        H968   0.992       .  S
O954        H965   0.992       .  S
C956        C957   1.399       .  A
C956        O961   1.372       .  S
C957        C958   1.406       .  A
C957        H962   1.083       .  S
C958        C959   1.417       .  A
C959        C960   1.400       .  A
C959        O963   1.372       .  S
C960        H964   1.084       .  S
O961        H966   0.992       .  S
O963        H967   0.992       .  S
C969        C970   1.405       .  A
C969        C974   1.403       .  A
C969        H979   1.083       .  S
C970        C975   1.489   1_655  S
C970        C971   1.407   1_655  A
C971        C972   1.402   1_455  A
C971        O976   1.372       .  S
C972        C973   1.410       .  A
C972        H977   1.083   1_655  S
C973        C974   1.411       .  A
C974        O978   1.371       .  S
C975        C980   1.409       .  A
C975        C984   1.402       .  A
O976        H992   0.992       .  S
O978        H989   0.992       .  S
C980        C981   1.403       .  A
C980        O985   1.372   1_455  S
C981        C982   1.407       .  A
C981        H986   1.083       .  S
C982        C983   1.417       .  A
C983        C984   1.400       .  A
C983        O987   1.372       .  S
C984        H988   1.084       .  S
O985        H990   0.992       .  S
O987        H991   0.992       .  S
C993        C994   1.401       .  A
C993        C998   1.404       .  A
C993       H1003   1.083       .  S
C994        C999   1.480       .  S
C994        C995   1.406       .  A
C995        C996   1.400       .  A
C995       O1000   1.372       .  S
C996        C997   1.405       .  A
C996       H1001   1.083       .  S
C997        C998   1.416       .  A
C998       O1002   1.372       .  S
C999       C1004   1.403       .  A
C999       C1008   1.402       .  A
O1000      H1016   0.992       .  S
O1002      H1013   0.991       .  S
C1004      C1005   1.401       .  A
C1004      O1009   1.372       .  S
C1005      C1006   1.413       .  A
C1005      H1010   1.083       .  S
C1006      C1007   1.413       .  A
C1007      C1008   1.403       .  A
C1007      O1011   1.371       .  S
C1008      H1012   1.084       .  S
O1009      H1014   0.992       .  S
O1011      H1015   0.992       .  S
C1017      C1018   1.403       .  A
C1017      C1022   1.396       .  A
C1017      H1027   1.084       .  S
C1018      C1023   1.491       .  S
C1018      C1019   1.412       .  A
C1019      C1020   1.410       .  A
C1019      O1024   1.372       .  S
C1020      C1021   1.405       .  A
C1020      H1025   1.083       .  S
C1021      C1022   1.410       .  A
C1022      O1026   1.373       .  S
C1023      C1028   1.407       .  A
C1023      C1032   1.405       .  A
O1024      H1040   0.992       .  S
O1026      H1037   0.992       .  S
C1028      C1029   1.405       .  A
C1028      O1033   1.372       .  S
C1029      C1030   1.410       .  A
C1029      H1034   1.083       .  S
C1030      C1031   1.414       .  A
C1031      C1032   1.403       .  A
C1031      O1035   1.371       .  S
C1032      H1036   1.084       .  S
O1033      H1038   0.992       .  S
O1035      H1039   0.992       .  S
C1041      C1042   1.404       .  A
C1041      C1046   1.398       .  A
C1041      H1051   1.083       .  S
C1042      C1047   1.483       .  S
C1042      C1043   1.411   1_655  A
C1043      C1044   1.397       .  A
C1043      O1048   1.372       .  S
C1044      C1045   1.402       .  A
C1044      H1049   1.084       .  S
C1045      C1046   1.409   1_455  A
C1046      O1050   1.371       .  S
C1047      C1052   1.406       .  A
C1047      C1056   1.409   1_655  A
O1048      H1064   0.992   1_455  S
O1050      H1061   0.991       .  S
C1052      C1053   1.393       .  A
C1052      O1057   1.372       .  S
C1053      C1054   1.407       .  A
C1053      H1058   1.084       .  S
C1054      C1055   1.407       .  A
C1055      C1056   1.402   1_655  A
C1055      O1059   1.371   1_655  S
C1056      H1060   1.083       .  S
O1057      H1062   0.992       .  S
O1059      H1063   0.992       .  S
C1065      C1066   1.404       .  A
C1065      C1070   1.402       .  A
C1065      H1075   1.083       .  S
C1066      C1071   1.491       .  S
C1066      C1067   1.412   1_655  A
C1067      C1068   1.402       .  A
C1067      O1072   1.371       .  S
C1068      C1069   1.405       .  A
C1068      H1073   1.084       .  S
C1069      C1070   1.412   1_455  A
C1070      O1074   1.372       .  S
C1071      C1076   1.413       .  A
C1071      C1080   1.402       .  A
O1072      H1088   0.992       .  S
O1074      H1085   0.992       .  S
C1076      C1077   1.407       .  A
C1076      O1081   1.371       .  S
C1077      C1078   1.405       .  A
C1077      H1082   1.083       .  S
C1078      C1079   1.413       .  A
C1079      C1080   1.398       .  A
C1079      O1083   1.372       .  S
C1080      H1084   1.084   1_655  S
O1081      H1086   0.992       .  S
O1083      H1087   0.992   1_655  S
C1089      C1090   1.407       .  A
C1089      C1094   1.404       .  A
C1089      H1099   1.083       .  S
C1090      C1095   1.488       .  S
C1090      C1091   1.409       .  A
C1091      C1092   1.399       .  A
C1091      O1096   1.373       .  S
C1092      C1093   1.405       .  A
C1092      H1097   1.084       .  S
C1093      C1094   1.409       .  A
C1094      O1098   1.371       .  S
C1095      C1100   1.411       .  A
C1095      C1104   1.401       .  A
O1096      H1112   0.992       .  S
O1098      H1109   0.992       .  S
C1100      C1101   1.402       .  A
C1100      O1105   1.371       .  S
C1101      C1102   1.407       .  A
C1101      H1106   1.083       .  S
C1102      C1103   1.416       .  A
C1103      C1104   1.399       .  A
C1103      O1107   1.371       .  S
C1104      H1108   1.084       .  S
O1105      H1110   0.991       .  S
O1107      H1111   0.992       .  S
C1113      C1114   1.406       .  A
C1113      C1118   1.410       .  A
C1113      H1123   1.083       .  S
C1114      C1119   1.493       .  S
C1114      C1115   1.409       .  A
C1115      C1116   1.400       .  A
C1115      O1120   1.371       .  S
C1116      C1117   1.404       .  A
C1116      H1121   1.084       .  S
C1117      C1118   1.414       .  A
C1118      O1122   1.371       .  S
C1119      C1124   1.407       .  A
C1119      C1128   1.406       .  A
O1120      H1136   0.992       .  S
O1122      H1133   0.992       .  S
C1124      C1125   1.406       .  A
C1124      O1129   1.371       .  S
C1125      C1126   1.410       .  A
C1125      H1130   1.083       .  S
C1126      C1127   1.412       .  A
C1127      C1128   1.404       .  A
C1127      O1131   1.372       .  S
C1128      H1132   1.084       .  S
O1129      H1134   0.992       .  S
O1131      H1135   0.992       .  S
C1137      C1138   1.404       .  A
C1137      C1142   1.401       .  A
C1137      H1147   1.084       .  S
C1138      C1143   1.488       .  S
C1138      C1139   1.408       .  A
C1139      C1140   1.405       .  A
C1139      O1144   1.373       .  S
C1140      C1141   1.409       .  A
C1140      H1145   1.084       .  S
C1141      C1142   1.411       .  A
C1142      O1146   1.372       .  S
C1143      C1148   1.410       .  A
C1143      C1152   1.405       .  A
O1144      H1160   0.991       .  S
O1146      H1157   0.992       .  S
C1148      C1149   1.403       .  A
C1148      O1153   1.372       .  S
C1149      C1150   1.406       .  A
C1149      H1154   1.084       .  S
C1150      C1151   1.408       .  A
C1151      C1152   1.402       .  A
C1151      O1155   1.372       .  S
C1152      H1156   1.084       .  S
O1153      H1158   0.992       .  S
O1155      H1159   0.992       .  S
C1161      C1162   1.401       .  A
C1161      C1166   1.397       .  A
C1161      H1171   1.083       .  S
C1162      C1167   1.480       .  S
C1162      C1163   1.407       .  A
C1163      C1164   1.398       .  A
C1163      O1168   1.371       .  S
C1164      C1165   1.406       .  A
C1164      H1169   1.083       .  S
C1165      C1166   1.417       .  A
C1166      O1170   1.372       .  S
C1167      C1172   1.407       .  A
C1167      C1176   1.404       .  A
O1168      H1184   0.992       .  S
O1170      H1181   0.992       .  S
C1172      C1173   1.399       .  A
C1172      O1177   1.372       .  S
C1173      C1174   1.406       .  A
C1173      H1178   1.084       .  S
C1174      C1175   1.409       .  A
C1175      C1176   1.399       .  A
C1175      O1179   1.371       .  S
C1176      H1180   1.084       .  S
O1177      H1182   0.992       .  S
O1179      H1183   0.992       .  S
C1185      C1186   1.401       .  A
C1185      C1190   1.401       .  A
C1185      H1195   1.084       .  S
C1186      C1191   1.483       .  S
C1186      C1187   1.408       .  A
C1187      C1188   1.402       .  A
C1187      O1192   1.371       .  S
C1188      C1189   1.405       .  A
C1188      H1193   1.083       .  S
C1189      C1190   1.415       .  A
C1190      O1194   1.372   1_545  S
C1191      C1196   1.405       .  A
C1191      C1200   1.401       .  A
O1192      H1208   0.992       .  S
O1194      H1205   0.992   1_565  S
C1196      C1197   1.402       .  A
C1196      O1201   1.372       .  S
C1197      C1198   1.410       .  A
C1197      H1202   1.083       .  S
C1198      C1199   1.417       .  A
C1199      C1200   1.403       .  A
C1199      O1203   1.371       .  S
C1200      H1204   1.084       .  S
O1201      H1206   0.991       .  S
O1203      H1207   0.992       .  S
C1209      C1210   1.396       .  A
C1209      C1214   1.399       .  A
C1209      H1219   1.084       .  S
C1210      C1215   1.475       .  S
C1210      C1211   1.406       .  A
C1211      C1212   1.401       .  A
C1211      O1216   1.371       .  S
C1212      C1213   1.406       .  A
C1212      H1217   1.083       .  S
C1213      C1214   1.422       .  A
C1214      O1218   1.372       .  S
C1215      C1220   1.402       .  A
C1215      C1224   1.401       .  A
O1216      H1232   0.992       .  S
O1218      H1229   0.991       .  S
C1220      C1221   1.397       .  A
C1220      O1225   1.371       .  S
C1221      C1222   1.409       .  A
C1221      H1226   1.083       .  S
C1222      C1223   1.415       .  A
C1223      C1224   1.402       .  A
C1223      O1227   1.372       .  S
C1224      H1228   1.084       .  S
O1225      H1230   0.992       .  S
O1227      H1231   0.992       .  S
C1233      C1234   1.403       .  A
C1233      C1238   1.399       .  A
C1233      H1243   1.084       .  S
C1234      C1239   1.482       .  S
C1234      C1235   1.410       .  A
C1235      C1236   1.404       .  A
C1235      O1240   1.372       .  S
C1236      C1237   1.402       .  A
C1236      H1241   1.084       .  S
C1237      C1238   1.407       .  A
C1238      O1242   1.372       .  S
C1239      C1244   1.409       .  A
C1239      C1248   1.400       .  A
O1240      H1256   0.991       .  S
O1242      H1253   0.991       .  S
C1244      C1245   1.402       .  A
C1244      O1249   1.372       .  S
C1245      C1246   1.407       .  A
C1245      H1250   1.083       .  S
C1246      C1247   1.416       .  A
C1247      C1248   1.399       .  A
C1247      O1251   1.372       .  S
C1248      H1252   1.084       .  S
O1249      H1254   0.992       .  S
O1251      H1255   0.993       .  S
C1257      C1258   1.401       .  A
C1257      C1262   1.401       .  A
C1257      H1267   1.084       .  S
C1258      C1263   1.481       .  S
C1258      C1259   1.406       .  A
C1259      C1260   1.402       .  A
C1259      O1264   1.372       .  S
C1260      C1261   1.407       .  A
C1260      H1265   1.083       .  S
C1261      C1262   1.416       .  A
C1262      O1266   1.372       .  S
C1263      C1268   1.407       .  A
C1263      C1272   1.403       .  A
O1264      H1280   0.991       .  S
O1266      H1277   0.992       .  S
C1268      C1269   1.397       .  A
C1268      O1273   1.372       .  S
C1269      C1270   1.406       .  A
C1269      H1274   1.084       .  S
C1270      C1271   1.412       .  A
C1271      C1272   1.403       .  A
C1271      O1275   1.371       .  S
C1272      H1276   1.083       .  S
O1273      H1278   0.992       .  S
O1275      H1279   0.992       .  S
C1281      C1282   1.405       .  A
C1281      C1286   1.405       .  A
C1281      H1291   1.083       .  S
C1282      C1287   1.480       .  S
C1282      C1283   1.405       .  A
C1283      C1284   1.394       .  A
C1283      O1288   1.372       .  S
C1284      C1285   1.408       .  A
C1284      H1289   1.084       .  S
C1285      C1286   1.411       .  A
C1286      O1290   1.371       .  S
C1287      C1292   1.407       .  A
C1287      C1296   1.399       .  A
O1288      H1304   0.992       .  S
O1290      H1301   0.992       .  S
C1292      C1293   1.405       .  A
C1292      O1297   1.371       .  S
C1293      C1294   1.408       .  A
C1293      H1298   1.083       .  S
C1294      C1295   1.417       .  A
C1295      C1296   1.396       .  A
C1295      O1299   1.372       .  S
C1296      H1300   1.084       .  S
O1297      H1302   0.992       .  S
O1299      H1303   0.992       .  S
C1305      C1306   1.407       .  A
C1305      C1310   1.405       .  A
C1305      H1315   1.083       .  S
C1306      C1311   1.473   1_565  S
C1306      C1307   1.399       .  A
C1307      C1308   1.387       .  A
C1307      O1312   1.373       .  S
C1308      C1309   1.412       .  A
C1308      H1313   1.083       .  S
C1309      C1310   1.410       .  A
C1310      O1314   1.371       .  S
C1311      C1316   1.405       .  A
C1311      C1320   1.404       .  A
O1312      H1328   0.992   1_565  S
O1314      H1325   0.992       .  S
C1316      C1317   1.396       .  A
C1316      O1321   1.372       .  S
C1317      C1318   1.402       .  A
C1317      H1322   1.084       .  S
C1318      C1319   1.407       .  A
C1319      C1320   1.396       .  A
C1319      O1323   1.372       .  S
C1320      H1324   1.084       .  S
O1321      H1326   0.992       .  S
O1323      H1327   0.992       .  S
C1329      C1330   1.403       .  A
C1329      C1334   1.403       .  A
C1329      H1339   1.084       .  S
C1330      C1335   1.495       .  S
C1330      C1331   1.411       .  A
C1331      C1332   1.410       .  A
C1331      O1336   1.372       .  S
C1332      C1333   1.408       .  A
C1332      H1337   1.083       .  S
C1333      C1334   1.413       .  A
C1334      O1338   1.372       .  S
C1335      C1340   1.410       .  A
C1335      C1344   1.404       .  A
O1336      H1352   0.992       .  S
O1338      H1349   0.992       .  S
C1340      C1341   1.405       .  A
C1340      O1345   1.371       .  S
C1341      C1342   1.409       .  A
C1341      H1346   1.083       .  S
C1342      C1343   1.416       .  A
C1343      C1344   1.405       .  A
C1343      O1347   1.371   1_565  S
C1344      H1348   1.084       .  S
O1345      H1350   0.992       .  S
O1347      H1351   0.992       .  S
C1353      C1354   1.408       .  A
C1353      C1358   1.405       .  A
C1353      H1363   1.083       .  S
C1354      C1359   1.488       .  S
C1354      C1355   1.407       .  A
C1355      C1356   1.398       .  A
C1355      O1360   1.373       .  S
C1356      C1357   1.408       .  A
C1356      H1361   1.084       .  S
C1357      C1358   1.411       .  A
C1358      O1362   1.371       .  S
C1359      C1364   1.410       .  A
C1359      C1368   1.401       .  A
O1360      H1376   0.992       .  S
O1362      H1373   0.992       .  S
C1364      C1365   1.404       .  A
C1364      O1369   1.371       .  S
C1365      C1366   1.409       .  A
C1365      H1370   1.083       .  S
C1366      C1367   1.416       .  A
C1367      C1368   1.399       .  A
C1367      O1371   1.372       .  S
C1368      H1372   1.084       .  S
O1369      H1374   0.991       .  S
O1371      H1375   0.992       .  S
C1377      C1378   1.404       .  A
C1377      C1382   1.407       .  A
C1377      H1387   1.084       .  S
C1378      C1383   1.484       .  S
C1378      C1379   1.402       .  A
C1379      C1380   1.401       .  A
C1379      O1384   1.371       .  S
C1380      C1381   1.412       .  A
C1380      H1385   1.083       .  S
C1381      C1382   1.414       .  A
C1382      O1386   1.371       .  S
C1383      C1388   1.407       .  A
C1383      C1392   1.400       .  A
O1384      H1400   0.992       .  S
O1386      H1397   0.992       .  S
C1388      C1389   1.404       .  A
C1388      O1393   1.372       .  S
C1389      C1390   1.408       .  A
C1389      H1394   1.083       .  S
C1390      C1391   1.416       .  A
C1391      C1392   1.405       .  A
C1391      O1395   1.372       .  S
C1392      H1396   1.084       .  S
O1393      H1398   0.992       .  S
O1395      H1399   0.992       .  S
C1401      C1402   1.402       .  A
C1401      C1406   1.404       .  A
C1401      H1411   1.084       .  S
C1402      C1407   1.492       .  S
C1402      C1403   1.409       .  A
C1403      C1404   1.407       .  A
C1403      O1408   1.372       .  S
C1404      C1405   1.409       .  A
C1404      H1409   1.083       .  S
C1405      C1406   1.417       .  A
C1406      O1410   1.372   1_554  S
C1407      C1412   1.409       .  A
C1407      C1416   1.402       .  A
O1408      H1424   0.992       .  S
O1410      H1421   0.992   1_556  S
C1412      C1413   1.407       .  A
C1412      O1417   1.371       .  S
C1413      C1414   1.411       .  A
C1413      H1418   1.083       .  S
C1414      C1415   1.417       .  A
C1415      C1416   1.403       .  A
C1415      O1419   1.372       .  S
C1416      H1420   1.084       .  S
O1417      H1422   0.992       .  S
O1419      H1423   0.992       .  S
C1425      C1426   1.398       .  A
C1425      C1430   1.390       .  A
C1425      H1435   1.084       .  S
C1426      C1431   1.473       .  S
C1426      C1427   1.410       .  A
C1427      C1428   1.397       .  A
C1427      O1432   1.372   1_556  S
C1428      C1429   1.402       .  A
C1428      H1433   1.083   1_556  S
C1429      C1430   1.417       .  A
C1430      O1434   1.373       .  S
C1431      C1436   1.407       .  A
C1431      C1440   1.405   1_556  A
O1432      H1448   0.992   1_554  S
O1434      H1445   0.992       .  S
C1436      C1437   1.392       .  A
C1436      O1441   1.372       .  S
C1437      C1438   1.402       .  A
C1437      H1442   1.084       .  S
C1438      C1439   1.403   1_556  A
C1439      C1440   1.395       .  A
C1439      O1443   1.372       .  S
C1440      H1444   1.084       .  S
O1441      H1446   0.992       .  S
O1443      H1447   0.992       .  S
C1449      C1450   1.407       .  A
C1449      C1454   1.410       .  A
C1449      H1459   1.083       .  S
C1450      C1455   1.506       .  S
C1450      C1451   1.413       .  A
C1451      C1452   1.406       .  A
C1451      O1456   1.372       .  S
C1452      C1453   1.411       .  A
C1452      H1457   1.083       .  S
C1453      C1454   1.417       .  A
C1454      O1458   1.371       .  S
C1455      C1460   1.413       .  A
C1455      C1464   1.407       .  A
O1456      H1472   0.992       .  S
O1458      H1469   0.992       .  S
C1460      C1461   1.409       .  A
C1460      O1465   1.371       .  S
C1461      C1462   1.409       .  A
C1461      H1466   1.083       .  S
C1462      C1463   1.417       .  A
C1463      C1464   1.408       .  A
C1463      O1467   1.372       .  S
C1464      H1468   1.083       .  S
O1465      H1470   0.993       .  S
O1467      H1471   0.992       .  S
C1473      C1474   1.399       .  A
C1473      C1478   1.401       .  A
C1473      H1483   1.084       .  S
C1474      C1479   1.479       .  S
C1474      C1475   1.406       .  A
C1475      C1476   1.403       .  A
C1475      O1480   1.372       .  S
C1476      C1477   1.407       .  A
C1476      H1481   1.083       .  S
C1477      C1478   1.418       .  A
C1478      O1482   1.372       .  S
C1479      C1484   1.406       .  A
C1479      C1488   1.401       .  A
O1480      H1496   0.992       .  S
O1482      H1493   0.992       .  S
C1484      C1485   1.400       .  A
C1484      O1489   1.372       .  S
C1485      C1486   1.406       .  A
C1485      H1490   1.083       .  S
C1486      C1487   1.415       .  A
C1487      C1488   1.404       .  A
C1487      O1491   1.371       .  S
C1488      H1492   1.083       .  S
O1489      H1494   0.992       .  S
O1491      H1495   0.992       .  S
C1497      C1498   1.405       .  A
C1497      C1502   1.404       .  A
C1497      H1507   1.083       .  S
C1498      C1503   1.498       .  S
C1498      C1499   1.412       .  A
C1499      C1500   1.406       .  A
C1499      O1504   1.373       .  S
C1500      C1501   1.407       .  A
C1500      H1505   1.083       .  S
C1501      C1502   1.415       .  A
C1502      O1506   1.371   1_554  S
C1503      C1508   1.412       .  A
C1503      C1512   1.406       .  A
O1504      H1520   0.992       .  S
O1506      H1517   0.992   1_556  S
C1508      C1509   1.403       .  A
C1508      O1513   1.372       .  S
C1509      C1510   1.409       .  A
C1509      H1514   1.083       .  S
C1510      C1511   1.416       .  A
C1511      C1512   1.404       .  A
C1511      O1515   1.371       .  S
C1512      H1516   1.083       .  S
O1513      H1518   0.992       .  S
O1515      H1519   0.992       .  S
C1521      C1522   1.406       .  A
C1521      C1526   1.397       .  A
C1521      H1531   1.084       .  S
C1522      C1527   1.486       .  S
C1522      C1523   1.411       .  A
C1523      C1524   1.402       .  A
C1523      O1528   1.373       .  S
C1524      C1525   1.403       .  A
C1524      H1529   1.084       .  S
C1525      C1526   1.406       .  A
C1526      O1530   1.372       .  S
C1527      C1532   1.406       .  A
C1527      C1536   1.410       .  A
O1528      H1544   0.992       .  S
O1530      H1541   0.991       .  S
C1532      C1533   1.392       .  A
C1532      O1537   1.372       .  S
C1533      C1534   1.410       .  A
C1533      H1538   1.084       .  S
C1534      C1535   1.407       .  A
C1535      C1536   1.403       .  A
C1535      O1539   1.371       .  S
C1536      H1540   1.083       .  S
O1537      H1542   0.992       .  S
O1539      H1543   0.992       .  S
C1545      C1546   1.405       .  A
C1545      C1550   1.403       .  A
C1545      H1555   1.083       .  S
C1546      C1551   1.484       .  S
C1546      C1547   1.406       .  A
C1547      C1548   1.398       .  A
C1547      O1552   1.372       .  S
C1548      C1549   1.407       .  A
C1548      H1553   1.083       .  S
C1549      C1550   1.411       .  A
C1550      O1554   1.372       .  S
C1551      C1556   1.405       .  A
C1551      C1560   1.404       .  A
O1552      H1568   0.992       .  S
O1554      H1565   0.992       .  S
C1556      C1557   1.400       .  A
C1556      O1561   1.372       .  S
C1557      C1558   1.410       .  A
C1557      H1562   1.083       .  S
C1558      C1559   1.414       .  A
C1559      C1560   1.402       .  A
C1559      O1563   1.371       .  S
C1560      H1564   1.084       .  S
O1561      H1566   0.992       .  S
O1563      H1567   0.992       .  S
C1569      C1570   1.403       .  A
C1569      C1574   1.405       .  A
C1569      H1579   1.084       .  S
C1570      C1575   1.498       .  S
C1570      C1571   1.412       .  A
C1571      C1572   1.410       .  A
C1571      O1576   1.372       .  S
C1572      C1573   1.407       .  A
C1572      H1577   1.083       .  S
C1573      C1574   1.417       .  A
C1574      O1578   1.372       .  S
C1575      C1580   1.409       .  A
C1575      C1584   1.405       .  A
O1576      H1592   0.991       .  S
O1578      H1589   0.992       .  S
C1580      C1581   1.407       .  A
C1580      O1585   1.371       .  S
C1581      C1582   1.411       .  A
C1581      H1586   1.083       .  S
C1582      C1583   1.416       .  A
C1583      C1584   1.408       .  A
C1583      O1587   1.371       .  S
C1584      H1588   1.084       .  S
O1585      H1590   0.992       .  S
O1587      H1591   0.992       .  S
C1593      C1594   1.402       .  A
C1593      C1598   1.393       .  A
C1593      H1603   1.083       .  S
C1594      C1599   1.484       .  S
C1594      C1595   1.411       .  A
C1595      C1596   1.403       .  A
C1595      O1600   1.372       .  S
C1596      C1597   1.405       .  A
C1596      H1601   1.083       .  S
C1597      C1598   1.412       .  A
C1598      O1602   1.372       .  S
C1599      C1604   1.411       .  A
C1599      C1608   1.402       .  A
O1600      H1616   0.991       .  S
O1602      H1613   0.992       .  S
C1604      C1605   1.400       .  A
C1604      O1609   1.373       .  S
C1605      C1606   1.405       .  A
C1605      H1610   1.083       .  S
C1606      C1607   1.414       .  A
C1607      C1608   1.395       .  A
C1607      O1611   1.372       .  S
C1608      H1612   1.083       .  S
O1609      H1614   0.992       .  S
O1611      H1615   0.992       .  S
C1617      C1618   1.402       .  A
C1617      C1622   1.395       .  A
C1617      H1627   1.083       .  S
C1618      C1623   1.486       .  S
C1618      C1619   1.411       .  A
C1619      C1620   1.400       .  A
C1619      O1624   1.371       .  S
C1620      C1621   1.406       .  A
C1620      H1625   1.083       .  S
C1621      C1622   1.415       .  A
C1622      O1626   1.372       .  S
C1623      C1628   1.411       .  A
C1623      C1632   1.404       .  A
O1624      H1640   0.992       .  S
O1626      H1637   0.992       .  S
C1628      C1629   1.401       .  A
C1628      O1633   1.373       .  S
C1629      C1630   1.403       .  A
C1629      H1634   1.084       .  S
C1630      C1631   1.412       .  A
C1631      C1632   1.396       .  A
C1631      O1635   1.372       .  S
C1632      H1636   1.083       .  S
O1633      H1638   0.992       .  S
O1635      H1639   0.992       .  S
C1641      C1642   1.399       .  A
C1641      C1646   1.403       .  A
C1641      H1651   1.084       .  S
C1642      C1647   1.482       .  S
C1642      C1643   1.407       .  A
C1643      C1644   1.403       .  A
C1643      O1648   1.371       .  S
C1644      C1645   1.408       .  A
C1644      H1649   1.083       .  S
C1645      C1646   1.418       .  A
C1646      O1650   1.372       .  S
C1647      C1652   1.407       .  A
C1647      C1656   1.399       .  A
O1648      H1664   0.992       .  S
O1650      H1661   0.991       .  S
C1652      C1653   1.403       .  A
C1652      O1657   1.371       .  S
C1653      C1654   1.407       .  A
C1653      H1658   1.083       .  S
C1654      C1655   1.419       .  A
C1655      C1656   1.404       .  A
C1655      O1659   1.372       .  S
C1656      H1660   1.084       .  S
O1657      H1662   0.992       .  S
O1659      H1663   0.991       .  S
C1665      C1666   1.406       .  A
C1665      C1670   1.407       .  A
C1665      H1675   1.083       .  S
C1666      C1671   1.491       .  S
C1666      C1667   1.408       .  A
C1667      C1668   1.401       .  A
C1667      O1672   1.372       .  S
C1668      C1669   1.408       .  A
C1668      H1673   1.083       .  S
C1669      C1670   1.412       .  A
C1670      O1674   1.371       .  S
C1671      C1676   1.408       .  A
C1671      C1680   1.404       .  A
O1672      H1688   0.992       .  S
O1674      H1685   0.991       .  S
C1676      C1677   1.404       .  A
C1676      O1681   1.372       .  S
C1677      C1678   1.409       .  A
C1677      H1682   1.083       .  S
C1678      C1679   1.415       .  A
C1679      C1680   1.403       .  A
C1679      O1683   1.372       .  S
C1680      H1684   1.084       .  S
O1681      H1686   0.992       .  S
O1683      H1687   0.992       .  S
C1689      C1690   1.401       .  A
C1689      C1694   1.387       .  A
C1689      H1699   1.083       .  S
C1690      C1695   1.486       .  S
C1690      C1691   1.414       .  A
C1691      C1692   1.407       .  A
C1691      O1696   1.373       .  S
C1692      C1693   1.404       .  A
C1692      H1697   1.083       .  S
C1693      C1694   1.413       .  A
C1694      O1698   1.372       .  S
C1695      C1700   1.413       .  A
C1695      C1704   1.405       .  A
O1696      H1712   0.992       .  S
O1698      H1709   0.999       .  S
C1700      C1701   1.404       .  A
C1700      O1705   1.373       .  S
C1701      C1702   1.402       .  A
C1701      H1706   1.084       .  S
C1702      C1703   1.402       .  A
C1703      C1704   1.392       .  A
C1703      O1707   1.371       .  S
C1704      H1708   1.083       .  S
O1705      H1710   0.993       .  S
O1707      H1711   0.996       .  S
C1713      C1714   1.400       .  A
C1713      C1718   1.393       .  A
C1713      H1723   1.084       .  S
C1714      C1719   1.477       .  S
C1714      C1715   1.407       .  A
C1715      C1716   1.402       .  A
C1715      O1720   1.373       .  S
C1716      C1717   1.406       .  A
C1716      H1721   1.083       .  S
C1717      C1718   1.416       .  A
C1718      O1722   1.372       .  S
C1719      C1724   1.410       .  A
C1719      C1728   1.402       .  A
O1720      H1736   0.992       .  S
O1722      H1733   0.992       .  S
C1724      C1725   1.399       .  A
C1724      O1729   1.371       .  S
C1725      C1726   1.402       .  A
C1725      H1730   1.084       .  S
C1726      C1727   1.409       .  A
C1727      C1728   1.395       .  A
C1727      O1731   1.372       .  S
C1728      H1732   1.084       .  S
O1729      H1734   0.992       .  S
O1731      H1735   0.992       .  S
C1737      C1738   1.405       .  A
C1737      C1742   1.405       .  A
C1737      H1747   1.084       .  S
C1738      C1743   1.496       .  S
C1738      C1739   1.410       .  A
C1739      C1740   1.405       .  A
C1739      O1744   1.373       .  S
C1740      C1741   1.408       .  A
C1740      H1745   1.083       .  S
C1741      C1742   1.416       .  A
C1742      O1746   1.371       .  S
C1743      C1748   1.411       .  A
C1743      C1752   1.405       .  A
O1744      H1760   0.992       .  S
O1746      H1757   0.992       .  S
C1748      C1749   1.404       .  A
C1748      O1753   1.371       .  S
C1749      C1750   1.408       .  A
C1749      H1754   1.083       .  S
C1750      C1751   1.415       .  A
C1751      C1752   1.404       .  A
C1751      O1755   1.372       .  S
C1752      H1756   1.084       .  S
O1753      H1758   0.992       .  S
O1755      H1759   0.992       .  S
C1761      C1762   1.406       .  A
C1761      C1766   1.405       .  A
C1761      H1771   1.083       .  S
C1762      C1767   1.499       .  S
C1762      C1763   1.412       .  A
C1763      C1764   1.405       .  A
C1763      O1768   1.372       .  S
C1764      C1765   1.408       .  A
C1764      H1769   1.083       .  S
C1765      C1766   1.415       .  A
C1766      O1770   1.371   1_545  S
C1767      C1772   1.410       .  A
C1767      C1776   1.406       .  A
O1768      H1784   0.992       .  S
O1770      H1781   0.992   1_565  S
C1772      C1773   1.404       .  A
C1772      O1777   1.372       .  S
C1773      C1774   1.409       .  A
C1773      H1778   1.083       .  S
C1774      C1775   1.416       .  A
C1775      C1776   1.406       .  A
C1775      O1779   1.371       .  S
C1776      H1780   1.083       .  S
O1777      H1782   0.992       .  S
O1779      H1783   0.992       .  S
C1785      C1786   1.406       .  A
C1785      C1790   1.401       .  A
C1785      H1795   1.083       .  S
C1786      C1791   1.477   1_565  S
C1786      C1787   1.405       .  A
C1787      C1788   1.389       .  A
C1787      O1792   1.373       .  S
C1788      C1789   1.408       .  A
C1788      H1793   1.084       .  S
C1789      C1790   1.409       .  A
C1790      O1794   1.371       .  S
C1791      C1796   1.411       .  A
C1791      C1800   1.402       .  A
O1792      H1808   0.992       .  S
O1794      H1805   0.992       .  S
C1796      C1797   1.400       .  A
C1796      O1801   1.372       .  S
C1797      C1798   1.401       .  A
C1797      H1802   1.084       .  S
C1798      C1799   1.404       .  A
C1799      C1800   1.390       .  A
C1799      O1803   1.371       .  S
C1800      H1804   1.084       .  S
O1801      H1806   0.992       .  S
O1803      H1807   0.991       .  S
C1809      C1810   1.402       .  A
C1809      C1814   1.403       .  A
C1809      H1819   1.084       .  S
C1810      C1815   1.480       .  S
C1810      C1811   1.405       .  A
C1811      C1812   1.398       .  A
C1811      O1816   1.372       .  S
C1812      C1813   1.407       .  A
C1812      H1817   1.083       .  S
C1813      C1814   1.413       .  A
C1814      O1818   1.372       .  S
C1815      C1820   1.404       .  A
C1815      C1824   1.405       .  A
O1816      H1832   0.992       .  S
O1818      H1829   0.992       .  S
C1820      C1821   1.395       .  A
C1820      O1825   1.372       .  S
C1821      C1822   1.408       .  A
C1821      H1826   1.083       .  S
C1822      C1823   1.411       .  A
C1823      C1824   1.403       .  A
C1823      O1827   1.371       .  S
C1824      H1828   1.084       .  S
O1825      H1830   0.992       .  S
O1827      H1831   0.992       .  S
C1833      C1834   1.405       .  A
C1833      C1838   1.405       .  A
C1833      H1843   1.083       .  S
C1834      C1839   1.483       .  S
C1834      C1835   1.403       .  A
C1835      C1836   1.398       .  A
C1835      O1840   1.372       .  S
C1836      C1837   1.412       .  A
C1836      H1841   1.083       .  S
C1837      C1838   1.413       .  A
C1838      O1842   1.371       .  S
C1839      C1844   1.403       .  A
C1839      C1848   1.404       .  A
O1840      H1856   0.992       .  S
O1842      H1853   0.992       .  S
C1844      C1845   1.400       .  A
C1844      O1849   1.372       .  S
C1845      C1846   1.411       .  A
C1845      H1850   1.083       .  S
C1846      C1847   1.414       .  A
C1847      C1848   1.404       .  A
C1847      O1851   1.372       .  S
C1848      H1852   1.084       .  S
O1849      H1854   0.992       .  S
O1851      H1855   0.992       .  S
C1857      C1858   1.404       .  A
C1857      C1862   1.402       .  A
C1857      H1867   1.084       .  S
C1858      C1863   1.486       .  S
C1858      C1859   1.407       .  A
C1859      C1860   1.401       .  A
C1859      O1864   1.372       .  S
C1860      C1861   1.408       .  A
C1860      H1865   1.083       .  S
C1861      C1862   1.413       .  A
C1862      O1866   1.372       .  S
C1863      C1868   1.407       .  A
C1863      C1872   1.402       .  A
O1864      H1880   0.992       .  S
O1866      H1877   0.992       .  S
C1868      C1869   1.403       .  A
C1868      O1873   1.372       .  S
C1869      C1870   1.409       .  A
C1869      H1874   1.083       .  S
C1870      C1871   1.416       .  A
C1871      C1872   1.401       .  A
C1871      O1875   1.372       .  S
C1872      H1876   1.084       .  S
O1873      H1878   0.992       .  S
O1875      H1879   0.992       .  S
C1881      C1882   1.408       .  A
C1881      C1886   1.401       .  A
C1881      H1891   1.083       .  S
C1882      C1887   1.479       .  S
C1882      C1883   1.406       .  A
C1883      C1884   1.387       .  A
C1883      O1888   1.373       .  S
C1884      C1885   1.407       .  A
C1884      H1889   1.084       .  S
C1885      C1886   1.407       .  A
C1886      O1890   1.371       .  S
C1887      C1892   1.411       .  A
C1887      C1896   1.404       .  A
O1888      H1904   0.992       .  S
O1890      H1901   0.992       .  S
C1892      C1893   1.397       .  A
C1892      O1897   1.372       .  S
C1893      C1894   1.402       .  A
C1893      H1898   1.084       .  S
C1894      C1895   1.405       .  A
C1895      C1896   1.391       .  A
C1895      O1899   1.372       .  S
C1896      H1900   1.083       .  S
O1897      H1902   0.991       .  S
O1899      H1903   0.992       .  S
C1905      C1906   1.398       .  A
C1905      C1910   1.395       .  A
C1905      H1915   1.084       .  S
C1906      C1911   1.466       .  S
C1906      C1907   1.404       .  A
C1907      C1908   1.396       .  A
C1907      O1912   1.373       .  S
C1908      C1909   1.407       .  A
C1908      H1913   1.083       .  S
C1909      C1910   1.411       .  A
C1910      O1914   1.372       .  S
C1911      C1916   1.402       .  A
C1911      C1920   1.402       .  A
O1912      H1928   0.992       .  S
O1914      H1925   0.992       .  S
C1916      C1917   1.391       .  A
C1916      O1921   1.372       .  S
C1917      C1918   1.405       .  A
C1917      H1922   1.084       .  S
C1918      C1919   1.411       .  A
C1919      C1920   1.397       .  A
C1919      O1923   1.372       .  S
C1920      H1924   1.084       .  S
O1921      H1926   0.992       .  S
O1923      H1927   0.992       .  S
C1929      C1930   1.405       .  A
C1929      C1934   1.397       .  A
C1929      H1939   1.083       .  S
C1930      C1935   1.478       .  S
C1930      C1931   1.408       .  A
C1931      C1932   1.394       .  A
C1931      O1936   1.371       .  S
C1932      C1933   1.401       .  A
C1932      H1937   1.084       .  S
C1933      C1934   1.408       .  A
C1934      O1938   1.373       .  S
C1935      C1940   1.402       .  A
C1935      C1944   1.408       .  A
O1936      H1952   0.992       .  S
O1938      H1949   0.991       .  S
C1940      C1941   1.388       .  A
C1940      O1945   1.373       .  S
C1941      C1942   1.411       .  A
C1941      H1946   1.083       .  S
C1942      C1943   1.409       .  A
C1943      C1944   1.403       .  A
C1943      O1947   1.371       .  S
C1944      H1948   1.083       .  S
O1945      H1950   0.992       .  S
O1947      H1951   0.992       .  S
C1953      C1954   1.402       .  A
C1953      C1958   1.402       .  A
C1953      H1963   1.083       .  S
C1954      C1959   1.498       .  S
C1954      C1955   1.414       .  A
C1955      C1956   1.409       .  A
C1955      O1960   1.372       .  S
C1956      C1957   1.407       .  A
C1956      H1961   1.083       .  S
C1957      C1958   1.415       .  A
C1958      O1962   1.372       .  S
C1959      C1964   1.411       .  A
C1959      C1968   1.404       .  A
O1960      H1976   0.992       .  S
O1962      H1973   0.992       .  S
C1964      C1965   1.406       .  A
C1964      O1969   1.372       .  S
C1965      C1966   1.408       .  A
C1965      H1970   1.083       .  S
C1966      C1967   1.417       .  A
C1967      C1968   1.405       .  A
C1967      O1971   1.371       .  S
C1968      H1972   1.083       .  S
O1969      H1974   0.992       .  S
O1971      H1975   0.992       .  S
C1977      C1978   1.406       .  A
C1977      C1982   1.402       .  A
C1977      H1987   1.083       .  S
C1978      C1983   1.488       .  S
C1978      C1979   1.409       .  A
C1979      C1980   1.396       .  A
C1979      O1984   1.372       .  S
C1980      C1981   1.407       .  A
C1980      H1985   1.083       .  S
C1981      C1982   1.413       .  A
C1982      O1986   1.371       .  S
C1983      C1988   1.410       .  A
C1983      C1992   1.407       .  A
O1984      H2000   0.992       .  S
O1986      H1997   0.992       .  S
C1988      C1989   1.397       .  A
C1988      O1993   1.372       .  S
C1989      C1990   1.405       .  A
C1989      H1994   1.084       .  S
C1990      C1991   1.408       .  A
C1991      C1992   1.402       .  A
C1991      O1995   1.371       .  S
C1992      H1996   1.083       .  S
O1993      H1998   0.992       .  S
O1995      H1999   0.992       .  S
C2001      C2002   1.402       .  A
C2001      C2006   1.401       .  A
C2001      H2011   1.084       .  S
C2002      C2007   1.485       .  S
C2002      C2003   1.408       .  A
C2003      C2004   1.402       .  A
C2003      O2008   1.373       .  S
C2004      C2005   1.407       .  A
C2004      H2009   1.083       .  S
C2005      C2006   1.415       .  A
C2006      O2010   1.372       .  S
C2007      C2012   1.408       .  A
C2007      C2016   1.402       .  A
O2008      H2024   0.992       .  S
O2010      H2021   0.992   1_565  S
C2012      C2013   1.400       .  A
C2012      O2017   1.371       .  S
C2013      C2014   1.408       .  A
C2013      H2018   1.083       .  S
C2014      C2015   1.416       .  A
C2015      C2016   1.401       .  A
C2015      O2019   1.372       .  S
C2016      H2020   1.084       .  S
O2017      H2022   0.992       .  S
O2019      H2023   0.992       .  S
C2025      C2026   1.403       .  A
C2025      C2030   1.398       .  A
C2025      H2035   1.083       .  S
C2026      C2031   1.479       .  S
C2026      C2027   1.408       .  A
C2027      C2028   1.396       .  A
C2027      O2032   1.372       .  S
C2028      C2029   1.404       .  A
C2028      H2033   1.084       .  S
C2029      C2030   1.412       .  A
C2030      O2034   1.372       .  S
C2031      C2036   1.410       .  A
C2031      C2040   1.402       .  A
O2032      H2048   0.992       .  S
O2034      H2045   0.992       .  S
C2036      C2037   1.401       .  A
C2036      O2041   1.372       .  S
C2037      C2038   1.402       .  A
C2037      H2042   1.084       .  S
C2038      C2039   1.410       .  A
C2039      C2040   1.396       .  A
C2039      O2043   1.372       .  S
C2040      H2044   1.084       .  S
O2041      H2046   0.992       .  S
O2043      H2047   0.992       .  S
C2049      C2050   1.402       .  A
C2049      C2054   1.398       .  A
C2049      H2059   1.083       .  S
C2050      C2055   1.480       .  S
C2050      C2051   1.409       .  A
C2051      C2052   1.395       .  A
C2051      O2056   1.372       .  S
C2052      C2053   1.406       .  A
C2052      H2057   1.083       .  S
C2053      C2054   1.415       .  A
C2054      O2058   1.371       .  S
C2055      C2060   1.409       .  A
C2055      C2064   1.402       .  A
O2056      H2072   0.992       .  S
O2058      H2069   0.992       .  S
C2060      C2061   1.403       .  A
C2060      O2065   1.372       .  S
C2061      C2062   1.405       .  A
C2061      H2066   1.084       .  S
C2062      C2063   1.409       .  A
C2063      C2064   1.393       .  A
C2063      O2067   1.372       .  S
C2064      H2068   1.084       .  S
O2065      H2070   0.992       .  S
O2067      H2071   0.992       .  S
C2073      C2074   1.399       .  A
C2073      C2078   1.404       .  A
C2073      H2083   1.084       .  S
C2074      C2079   1.483       .  S
C2074      C2075   1.407       .  A
C2075      C2076   1.404       .  A
C2075      O2080   1.372       .  S
C2076      C2077   1.408       .  A
C2076      H2081   1.083       .  S
C2077      C2078   1.417       .  A
C2078      O2082   1.372       .  S
C2079      C2084   1.407       .  A
C2079      C2088   1.402       .  A
O2080      H2096   0.992       .  S
O2082      H2093   0.993       .  S
C2084      C2085   1.402       .  A
C2084      O2089   1.372       .  S
C2085      C2086   1.406       .  A
C2085      H2090   1.083       .  S
C2086      C2087   1.414       .  A
C2087      C2088   1.404       .  A
C2087      O2091   1.371       .  S
C2088      H2092   1.083       .  S
O2089      H2094   0.991       .  S
O2091      H2095   0.992       .  S
C2097      C2098   1.404       .  A
C2097      C2102   1.404       .  A
C2097      H2107   1.084       .  S
C2098      C2103   1.495       .  S
C2098      C2099   1.410       .  A
C2099      C2100   1.406       .  A
C2099      O2104   1.373       .  S
C2100      C2101   1.409       .  A
C2100      H2105   1.083       .  S
C2101      C2102   1.417       .  A
C2102      O2106   1.372       .  S
C2103      C2108   1.410       .  A
C2103      C2112   1.407       .  A
O2104      H2120   0.992       .  S
O2106      H2117   0.992       .  S
C2108      C2109   1.401       .  A
C2108      O2113   1.371       .  S
C2109      C2110   1.408       .  A
C2109      H2114   1.083       .  S
C2110      C2111   1.413       .  A
C2111      C2112   1.405       .  A
C2111      O2115   1.371       .  S
C2112      H2116   1.083       .  S
O2113      H2118   0.992       .  S
O2115      H2119   0.991       .  S
C2121      C2122   1.402       .  A
C2121      C2126   1.400       .  A
C2121      H2131   1.084       .  S
C2122      C2127   1.479       .  S
C2122      C2123   1.406       .  A
C2123      C2124   1.400       .  A
C2123      O2128   1.373       .  S
C2124      C2125   1.408       .  A
C2124      H2129   1.083       .  S
C2125      C2126   1.411       .  A
C2126      O2130   1.372       .  S
C2127      C2132   1.404       .  A
C2127      C2136   1.404       .  A
O2128      H2144   0.992       .  S
O2130      H2141   0.992       .  S
C2132      C2133   1.397       .  A
C2132      O2137   1.372       .  S
C2133      C2134   1.409       .  A
C2133      H2138   1.083       .  S
C2134      C2135   1.410       .  A
C2135      C2136   1.401       .  A
C2135      O2139   1.371       .  S
C2136      H2140   1.084       .  S
O2137      H2142   0.992       .  S
O2139      H2143   0.992       .  S
C2145      C2146   1.407       .  A
C2145      C2150   1.403       .  A
C2145      H2155   1.083       .  S
C2146      C2151   1.489       .  S
C2146      C2147   1.410       .  A
C2147      C2148   1.401       .  A
C2147      O2152   1.371       .  S
C2148      C2149   1.402       .  A
C2148      H2153   1.084       .  S
C2149      C2150   1.407       .  A
C2150      O2154   1.372       .  S
C2151      C2156   1.410       .  A
C2151      C2160   1.404       .  A
O2152      H2168   0.992       .  S
O2154      H2165   0.991       .  S
C2156      C2157   1.403       .  A
C2156      O2161   1.371       .  S
C2157      C2158   1.405       .  A
C2157      H2162   1.083       .  S
C2158      C2159   1.413       .  A
C2159      C2160   1.401       .  A
C2159      O2163   1.372       .  S
C2160      H2164   1.084       .  S
O2161      H2166   0.992       .  S
O2163      H2167   0.992       .  S
C2169      C2170   1.403       .  A
C2169      C2174   1.403       .  A
C2169      H2179   1.083       .  S
C2170      C2175   1.494       .  S
C2170      C2171   1.413       .  A
C2171      C2172   1.404       .  A
C2171      O2176   1.372       .  S
C2172      C2173   1.406       .  A
C2172      H2177   1.083       .  S
C2173      C2174   1.416       .  A
C2174      O2178   1.372       .  S
C2175      C2180   1.411       .  A
C2175      C2184   1.402       .  A
O2176      H2192   0.992       .  S
O2178      H2189   0.992       .  S
C2180      C2181   1.406       .  A
C2180      O2185   1.372       .  S
C2181      C2182   1.409       .  A
C2181      H2186   1.083       .  S
C2182      C2183   1.416       .  A
C2183      C2184   1.401       .  A
C2183      O2187   1.372       .  S
C2184      H2188   1.084       .  S
O2185      H2190   0.992       .  S
O2187      H2191   0.992       .  S
C2193      C2194   1.407       .  A
C2193      C2198   1.400       .  A
C2193      H2203   1.083       .  S
C2194      C2199   1.484       .  S
C2194      C2195   1.410       .  A
C2195      C2196   1.396       .  A
C2195      O2200   1.372       .  S
C2196      C2197   1.401       .  A
C2196      H2201   1.084       .  S
C2197      C2198   1.405       .  A
C2198      O2202   1.372       .  S
C2199      C2204   1.413       .  A
C2199      C2208   1.401       .  A
O2200      H2216   0.992       .  S
O2202      H2213   0.992       .  S
C2204      C2205   1.401       .  A
C2204      O2209   1.371       .  S
C2205      C2206   1.402       .  A
C2205      H2210   1.084       .  S
C2206      C2207   1.412       .  A
C2207      C2208   1.391       .  A
C2207      O2211   1.373       .  S
C2208      H2212   1.083       .  S
O2209      H2214   0.992       .  S
O2211      H2215   0.991       .  S
C2217      C2218   1.401       .  A
C2217      C2222   1.400       .  A
C2217      H2227   1.084       .  S
C2218      C2223   1.475       .  S
C2218      C2219   1.405       .  A
C2219      C2220   1.396       .  A
C2219      O2224   1.372       .  S
C2220      C2221   1.405       .  A
C2220      H2225   1.083       .  S
C2221      C2222   1.416       .  A
C2222      O2226   1.372       .  S
C2223      C2228   1.408       .  A
C2223      C2232   1.398       .  A
O2224      H2240   0.992       .  S
O2226      H2237   0.991       .  S
C2228      C2229   1.400       .  A
C2228      O2233   1.372       .  S
C2229      C2230   1.405       .  A
C2229      H2234   1.083       .  S
C2230      C2231   1.414       .  A
C2231      C2232   1.395       .  A
C2231      O2235   1.372       .  S
C2232      H2236   1.084       .  S
O2233      H2238   0.992       .  S
O2235      H2239   0.992       .  S
C2241      C2242   1.398       .  A
C2241      C2246   1.399       .  A
C2241      H2251   1.084       .  S
C2242      C2247   1.474       .  S
C2242      C2243   1.406       .  A
C2243      C2244   1.400       .  A
C2243      O2248   1.372       .  S
C2244      C2245   1.406       .  A
C2244      H2249   1.083       .  S
C2245      C2246   1.415       .  A
C2246      O2250   1.372       .  S
C2247      C2252   1.405       .  A
C2247      C2256   1.398       .  A
O2248      H2264   0.992       .  S
O2250      H2261   0.992       .  S
C2252      C2253   1.398       .  A
C2252      O2257   1.372       .  S
C2253      C2254   1.408       .  A
C2253      H2258   1.083       .  S
C2254      C2255   1.417       .  A
C2255      C2256   1.400       .  A
C2255      O2259   1.371       .  S
C2256      H2260   1.084       .  S
O2257      H2262   0.992       .  S
O2259      H2263   0.992       .  S
C2265      C2266   1.406       .  A
C2265      C2270   1.402       .  A
C2265      H2275   1.083   1_455  S
C2266      C2271   1.498   1_455  S
C2266      C2267   1.413       .  A
C2267      C2268   1.406       .  A
C2267      O2272   1.373       .  S
C2268      C2269   1.406       .  A
C2268      H2273   1.084       .  S
C2269      C2270   1.413       .  A
C2270      O2274   1.371       .  S
C2271      C2276   1.414       .  A
C2271      C2280   1.408       .  A
O2272      H2288   0.993       .  S
O2274      H2285   0.992       .  S
C2276      C2277   1.404       .  A
C2276      O2281   1.371   1_655  S
C2277      C2278   1.403       .  A
C2277      H2282   1.084       .  S
C2278      C2279   1.408       .  A
C2279      C2280   1.403       .  A
C2279      O2283   1.371       .  S
C2280      H2284   1.083       .  S
O2281      H2286   0.992   1_455  S
O2283      H2287   0.992       .  S
C2289      C2290   1.405       .  A
C2289      C2294   1.397   1_655  A
C2289      H2299   1.083       .  S
C2290      C2295   1.484       .  S
C2290      C2291   1.413       .  A
C2291      C2292   1.396   1_655  A
C2291      O2296   1.371       .  S
C2292      C2293   1.398       .  A
C2292      H2297   1.084       .  S
C2293      C2294   1.407       .  A
C2294      O2298   1.372       .  S
C2295      C2300   1.406       .  A
C2295      C2304   1.408   1_655  A
O2296      H2312   0.992       .  S
O2298      H2309   0.991   1_455  S
C2300      C2301   1.395       .  A
C2300      O2305   1.373       .  S
C2301      C2302   1.409       .  A
C2301      H2306   1.084       .  S
C2302      C2303   1.407       .  A
C2303      C2304   1.400   1_655  A
C2303      O2307   1.371   1_655  S
C2304      H2308   1.083       .  S
O2305      H2310   0.992       .  S
O2307      H2311   0.992       .  S
C2313      C2314   1.407       .  A
C2313      C2318   1.406       .  A
C2313      H2323   1.083       .  S
C2314      C2319   1.488       .  S
C2314      C2315   1.406       .  A
C2315      C2316   1.398       .  A
C2315      O2320   1.374       .  S
C2316      C2317   1.410       .  A
C2316      H2321   1.083       .  S
C2317      C2318   1.411       .  A
C2318      O2322   1.371       .  S
C2319      C2324   1.409       .  A
C2319      C2328   1.404       .  A
O2320      H2336   0.992       .  S
O2322      H2333   0.992       .  S
C2324      C2325   1.398       .  A
C2324      O2329   1.372       .  S
C2325      C2326   1.406       .  A
C2325      H2330   1.083       .  S
C2326      C2327   1.414       .  A
C2327      C2328   1.403       .  A
C2327      O2331   1.371       .  S
C2328      H2332   1.084       .  S
O2329      H2334   0.992       .  S
O2331      H2335   0.992       .  S
C2337      C2338   1.399       .  A
C2337      C2342   1.391       .  A
C2337      H2347   1.083       .  S
C2338      C2343   1.475       .  S
C2338      C2339   1.407       .  A
C2339      C2340   1.399       .  A
C2339      O2344   1.372       .  S
C2340      C2341   1.407       .  A
C2340      H2345   1.083       .  S
C2341      C2342   1.413       .  A
C2342      O2346   1.373       .  S
C2343      C2348   1.408       .  A
C2343      C2352   1.402       .  A
O2344      H2360   0.992       .  S
O2346      H2357   0.993       .  S
C2348      C2349   1.397       .  A
C2348      O2353   1.373       .  S
C2349      C2350   1.402       .  A
C2349      H2354   1.084       .  S
C2350      C2351   1.410       .  A
C2351      C2352   1.395       .  A
C2351      O2355   1.372       .  S
C2352      H2356   1.084       .  S
O2353      H2358   0.992       .  S
O2355      H2359   0.992       .  S
C2361      C2362   1.405       .  A
C2361      C2366   1.396       .  A
C2361      H2371   1.083       .  S
C2362      C2367   1.497       .  S
C2362      C2363   1.418       .  A
C2363      C2364   1.408       .  A
C2363      O2368   1.373       .  S
C2364      C2365   1.401       .  A
C2364      H2369   1.084       .  S
C2365      C2366   1.410       .  A
C2366      O2370   1.374       .  S
C2367      C2372   1.416       .  A
C2367      C2376   1.409       .  A
O2368      H2384   0.993       .  S
O2370      H2381   0.992       .  S
C2372      C2373   1.406       .  A
C2372      O2377   1.374       .  S
C2373      C2374   1.400       .  A
C2373      H2378   1.084       .  S
C2374      C2375   1.403       .  A
C2375      C2376   1.396       .  A
C2375      O2379   1.372       .  S
C2376      H2380   1.083       .  S
O2377      H2382   0.993       .  S
O2379      H2383   0.992       .  S
C2385      C2386   1.405       .  A
C2385      C2390   1.404       .  A
C2385      H2395   1.083       .  S
C2386      C2391   1.495       .  S
C2386      C2387   1.410       .  A
C2387      C2388   1.402       .  A
C2387      O2392   1.371       .  S
C2388      C2389   1.408       .  A
C2388      H2393   1.083       .  S
C2389      C2390   1.416       .  A
C2390      O2394   1.371       .  S
C2391      C2396   1.410       .  A
C2391      C2400   1.405       .  A
O2392      H2408   0.992       .  S
O2394      H2405   0.992       .  S
C2396      C2397   1.406       .  A
C2396      O2401   1.373       .  S
C2397      C2398   1.410       .  A
C2397      H2402   1.083       .  S
C2398      C2399   1.411       .  A
C2399      C2400   1.402       .  A
C2399      O2403   1.371       .  S
C2400      H2404   1.083       .  S
O2401      H2406   0.992       .  S
O2403      H2407   0.992       .  S
C2409      C2410   1.405       .  A
C2409      C2414   1.407       .  A
C2409      H2419   1.084       .  S
C2410      C2415   1.495       .  S
C2410      C2411   1.408       .  A
C2411      C2412   1.407       .  A
C2411      O2416   1.372       .  S
C2412      C2413   1.410       .  A
C2412      H2417   1.083       .  S
C2413      C2414   1.415       .  A
C2414      O2418   1.371       .  S
C2415      C2420   1.409       .  A
C2415      C2424   1.404       .  A
O2416      H2432   0.992       .  S
O2418      H2429   0.992       .  S
C2420      C2421   1.407       .  A
C2420      O2425   1.372       .  S
C2421      C2422   1.409       .  A
C2421      H2426   1.083       .  S
C2422      C2423   1.417       .  A
C2423      C2424   1.405       .  A
C2423      O2427   1.372       .  S
C2424      H2428   1.084       .  S
O2425      H2430   0.992       .  S
O2427      H2431   0.992       .  S
C2433      C2434   1.404       .  A
C2433      C2438   1.397       .  A
C2433      H2443   1.083       .  S
C2434      C2439   1.490       .  S
C2434      C2435   1.412       .  A
C2435      C2436   1.401       .  A
C2435      O2440   1.371       .  S
C2436      C2437   1.405       .  A
C2436      H2441   1.083       .  S
C2437      C2438   1.412       .  A
C2438      O2442   1.372       .  S
C2439      C2444   1.412       .  A
C2439      C2448   1.407       .  A
O2440      H2456   0.991       .  S
O2442      H2453   0.992       .  S
C2444      C2445   1.398       .  A
C2444      O2449   1.373       .  S
C2445      C2446   1.402       .  A
C2445      H2450   1.084       .  S
C2446      C2447   1.408       .  A
C2447      C2448   1.402       .  A
C2447      O2451   1.372       .  S
C2448      H2452   1.083       .  S
O2449      H2454   0.992       .  S
O2451      H2455   0.992       .  S
C2457      C2458   1.402       .  A
C2457      C2462   1.398       .  A
C2457      H2467   1.084       .  S
C2458      C2463   1.474       .  S
C2458      C2459   1.409       .  A
C2459      C2460   1.394       .  A
C2459      O2464   1.373       .  S
C2460      C2461   1.401       .  A
C2460      H2465   1.084       .  S
C2461      C2462   1.410       .  A
C2462      O2466   1.371       .  S
C2463      C2468   1.407       .  A
C2463      C2472   1.403       .  A
O2464      H2480   0.992       .  S
O2466      H2477   0.992       .  S
C2468      C2469   1.394       .  A
C2468      O2473   1.372       .  S
C2469      C2470   1.403       .  A
C2469      H2474   1.084       .  S
C2470      C2471   1.408       .  A
C2471      C2472   1.398       .  A
C2471      O2475   1.372       .  S
C2472      H2476   1.084       .  S
O2473      H2478   0.992       .  S
O2475      H2479   0.992       .  S
C2481      C2482   1.405       .  A
C2481      C2486   1.404       .  A
C2481      H2491   1.083       .  S
C2482      C2487   1.482       .  S
C2482      C2483   1.403       .  A
C2483      C2484   1.397       .  A
C2483      O2488   1.373       .  S
C2484      C2485   1.411       .  A
C2484      H2489   1.083       .  S
C2485      C2486   1.413       .  A
C2486      O2490   1.371       .  S
C2487      C2492   1.404       .  A
C2487      C2496   1.403       .  A
O2488      H2504   0.992       .  S
O2490      H2501   0.992       .  S
C2492      C2493   1.401       .  A
C2492      O2497   1.372       .  S
C2493      C2494   1.411       .  A
C2493      H2498   1.083       .  S
C2494      C2495   1.413       .  A
C2495      C2496   1.401       .  A
C2495      O2499   1.371       .  S
C2496      H2500   1.084       .  S
O2497      H2502   0.992       .  S
O2499      H2503   0.992       .  S
C2505      C2506   1.406       .  A
C2505      C2510   1.405       .  A
C2505      H2515   1.084       .  S
C2506      C2511   1.498       .  S
C2506      C2507   1.410       .  A
C2507      C2508   1.408       .  A
C2507      O2512   1.373       .  S
C2508      C2509   1.410       .  A
C2508      H2513   1.083       .  S
C2509      C2510   1.415       .  A
C2510      O2514   1.371       .  S
C2511      C2516   1.413   1_655  A
C2511      C2520   1.403       .  A
O2512      H2528   0.992   1_655  S
O2514      H2525   0.992       .  S
C2516      C2517   1.407       .  A
C2516      O2521   1.371       .  S
C2517      C2518   1.409       .  A
C2517      H2522   1.083       .  S
C2518      C2519   1.417   1_455  A
C2519      C2520   1.403       .  A
C2519      O2523   1.371       .  S
C2520      H2524   1.084       .  S
O2521      H2526   0.992       .  S
O2523      H2527   0.992       .  S
C2529      C2530   1.397       .  A
C2529      C2534   1.393       .  A
C2529      H2539   1.084       .  S
C2530      C2535   1.474       .  S
C2530      C2531   1.409       .  A
C2531      C2532   1.405       .  A
C2531      O2536   1.372       .  S
C2532      C2533   1.405       .  A
C2532      H2537   1.083       .  S
C2533      C2534   1.412       .  A
C2534      O2538   1.372       .  S
C2535      C2540   1.404       .  A
C2535      C2544   1.400       .  A
O2536      H2552   0.992       .  S
O2538      H2549   0.992       .  S
C2540      C2541   1.398       .  A
C2540      O2545   1.372       .  S
C2541      C2542   1.409       .  A
C2541      H2546   1.083       .  S
C2542      C2543   1.414       .  A
C2543      C2544   1.399       .  A
C2543      O2547   1.371       .  S
C2544      H2548   1.084       .  S
O2545      H2550   0.992       .  S
O2547      H2551   0.992       .  S
C2553      C2554   1.405   1_455  A
C2553      C2558   1.406       .  A
C2553      H2563   1.084       .  S
C2554      C2559   1.496       .  S
C2554      C2555   1.409       .  A
C2555      C2556   1.407       .  A
C2555      O2560   1.373       .  S
C2556      C2557   1.411   1_655  A
C2556      H2561   1.083       .  S
C2557      C2558   1.416       .  A
C2558      O2562   1.371       .  S
C2559      C2564   1.410       .  A
C2559      C2568   1.406       .  A
O2560      H2576   0.992       .  S
O2562      H2573   0.996       .  S
C2564      C2565   1.404       .  A
C2564      O2569   1.371       .  S
C2565      C2566   1.409       .  A
C2565      H2570   1.083       .  S
C2566      C2567   1.416       .  A
C2567      C2568   1.407       .  A
C2567      O2571   1.371       .  S
C2568      H2572   1.084       .  S
O2569      H2574   0.991       .  S
O2571      H2575   0.992       .  S
C2577      C2578   1.410   1_454  A
C2577      C2582   1.402   1_455  A
C2577      H2587   1.082       .  S
C2578      C2583   1.487   1_565  S
C2578      C2579   1.410       .  A
C2579      C2580   1.389       .  A
C2579      O2584   1.372       .  S
C2580      C2581   1.406       .  A
C2580      H2585   1.085       .  S
C2581      C2582   1.405   1_556  A
C2582      O2586   1.372   1_655  S
C2583      C2588   1.414   1_556  A
C2583      C2592   1.405       .  A
O2584      H2600   0.992       .  S
O2586      H2597   0.992       .  S
C2588      C2589   1.401   1_655  A
C2588      O2593   1.373       .  S
C2589      C2590   1.401   1_554  A
C2589      H2594   1.084       .  S
C2590      C2591   1.404   1_455  A
C2591      C2592   1.392       .  A
C2591      O2595   1.371       .  S
C2592      H2596   1.082       .  S
O2593      H2598   0.992   1_655  S
O2595      H2599   0.992       .  S
C2601      C2602   1.406       .  A
C2601      C2606   1.403       .  A
C2601      H2611   1.082       .  S
C2602      C2607   1.499   1_455  S
C2602      C2603   1.413       .  A
C2603      C2604   1.402       .  A
C2603      O2608   1.371   1_455  S
C2604      C2605   1.406       .  A
C2604      H2609   1.083       .  S
C2605      C2606   1.416       .  A
C2606      O2610   1.372       .  S
C2607      C2612   1.412   1_655  A
C2607      C2616   1.407       .  A
O2608      H2624   0.992       .  S
O2610      H2621   0.991       .  S
C2612      C2613   1.404   1_455  A
C2612      O2617   1.372       .  S
C2613      C2614   1.409       .  A
C2613      H2618   1.083   1_655  S
C2614      C2615   1.413       .  A
C2615      C2616   1.403       .  A
C2615      O2619   1.371       .  S
C2616      H2620   1.083       .  S
O2617      H2622   0.992       .  S
O2619      H2623   0.991       .  S
C2625      C2626   1.406       .  A
C2625      C2630   1.406       .  A
C2625      H2635   1.083       .  S
C2626      C2631   1.488       .  S
C2626      C2627   1.408       .  A
C2627      C2628   1.396       .  A
C2627      O2632   1.372       .  S
C2628      C2629   1.405       .  A
C2628      H2633   1.083       .  S
C2629      C2630   1.413       .  A
C2630      O2634   1.372       .  S
C2631      C2636   1.409       .  A
C2631      C2640   1.402       .  A
O2632      H2648   0.992       .  S
O2634      H2645   0.992       .  S
C2636      C2637   1.405       .  A
C2636      O2641   1.372       .  S
C2637      C2638   1.410       .  A
C2637      H2642   1.083       .  S
C2638      C2639   1.415       .  A
C2639      C2640   1.397       .  A
C2639      O2643   1.372       .  S
C2640      H2644   1.084       .  S
O2641      H2646   0.992       .  S
O2643      H2647   0.992       .  S
C2649      C2650   1.405       .  A
C2649      C2654   1.407       .  A
C2649      H2659   1.083       .  S
C2650      C2655   1.493       .  S
C2650      C2651   1.407       .  A
C2651      C2652   1.404       .  A
C2651      O2656   1.371       .  S
C2652      C2653   1.410       .  A
C2652      H2657   1.083   1_545  S
C2653      C2654   1.415       .  A
C2654      O2658   1.371       .  S
C2655      C2660   1.407       .  A
C2655      C2664   1.404       .  A
O2656      H2672   0.992       .  S
O2658      H2669   0.992       .  S
C2660      C2661   1.405       .  A
C2660      O2665   1.371       .  S
C2661      C2662   1.410       .  A
C2661      H2666   1.083       .  S
C2662      C2663   1.417       .  A
C2663      C2664   1.407       .  A
C2663      O2667   1.372       .  S
C2664      H2668   1.084       .  S
O2665      H2670   0.992       .  S
O2667      H2671   0.992       .  S
C2673      C2674   1.399       .  A
C2673      C2678   1.403       .  A
C2673      H2683   1.084       .  S
C2674      C2679   1.483       .  S
C2674      C2675   1.407       .  A
C2675      C2676   1.405       .  A
C2675      O2680   1.372       .  S
C2676      C2677   1.409       .  A
C2676      H2681   1.083       .  S
C2677      C2678   1.416       .  A
C2678      O2682   1.372       .  S
C2679      C2684   1.403       .  A
C2679      C2688   1.404       .  A
O2680      H2696   0.992       .  S
O2682      H2693   0.992       .  S
C2684      C2685   1.401       .  A
C2684      O2689   1.371       .  S
C2685      C2686   1.413       .  A
C2685      H2690   1.083       .  S
C2686      C2687   1.413       .  A
C2687      C2688   1.405       .  A
C2687      O2691   1.371       .  S
C2688      H2692   1.083       .  S
O2689      H2694   0.992       .  S
O2691      H2695   0.992       .  S
C2697      C2698   1.409       .  A
C2697      C2702   1.409       .  A
C2697      H2707   1.083       .  S
C2698      C2703   1.503       .  S
C2698      C2699   1.409       .  A
C2699      C2700   1.408       .  A
C2699      O2704   1.373       .  S
C2700      C2701   1.411       .  A
C2700      H2705   1.083       .  S
C2701      C2702   1.412       .  A
C2702      O2706   1.371       .  S
C2703      C2708   1.414       .  A
C2703      C2712   1.403       .  A
O2704      H2720   0.992       .  S
O2706      H2717   0.992       .  S
C2708      C2709   1.410       .  A
C2708      O2713   1.372       .  S
C2709      C2710   1.411       .  A
C2709      H2714   1.083       .  S
C2710      C2711   1.418       .  A
C2711      C2712   1.405       .  A
C2711      O2715   1.371       .  S
C2712      H2716   1.084       .  S
O2713      H2718   0.992       .  S
O2715      H2719   0.992       .  S
C2721      C2722   1.401       .  A
C2721      C2726   1.392       .  A
C2721      H2731   1.083       .  S
C2722      C2727   1.479       .  S
C2722      C2723   1.411   1_556  A
C2723      C2724   1.400       .  A
C2723      O2728   1.371       .  S
C2724      C2725   1.402   1_554  A
C2724      H2729   1.084       .  S
C2725      C2726   1.410       .  A
C2726      O2730   1.372       .  S
C2727      C2732   1.408       .  A
C2727      C2736   1.407   1_556  A
O2728      H2744   0.992       .  S
O2730      H2741   0.992       .  S
C2732      C2733   1.394       .  A
C2732      O2737   1.372       .  S
C2733      C2734   1.401       .  A
C2733      H2738   1.083       .  S
C2734      C2735   1.403       .  A
C2735      C2736   1.397   1_556  A
C2735      O2739   1.371   1_556  S
C2736      H2740   1.083       .  S
O2737      H2742   0.992       .  S
O2739      H2743   0.993       .  S
C2745      C2746   1.406       .  A
C2745      C2750   1.406       .  A
C2745      H2755   1.083       .  S
C2746      C2751   1.486       .  S
C2746      C2747   1.408       .  A
C2747      C2748   1.395       .  A
C2747      O2752   1.372       .  S
C2748      C2749   1.407       .  A
C2748      H2753   1.083       .  S
C2749      C2750   1.413       .  A
C2750      O2754   1.371       .  S
C2751      C2756   1.409       .  A
C2751      C2760   1.401       .  A
O2752      H2768   0.992       .  S
O2754      H2765   0.992       .  S
C2756      C2757   1.405       .  A
C2756      O2761   1.372       .  S
C2757      C2758   1.408       .  A
C2757      H2762   1.083       .  S
C2758      C2759   1.415       .  A
C2759      C2760   1.395       .  A
C2759      O2763   1.372       .  S
C2760      H2764   1.084       .  S
O2761      H2766   0.992       .  S
O2763      H2767   0.992       .  S
C2769      C2770   1.402   1_455  A
C2769      C2774   1.403   1_455  A
C2769      H2779   1.084       .  S
C2770      C2775   1.495   1_655  S
C2770      C2771   1.411       .  A
C2771      C2772   1.407       .  A
C2771      O2776   1.371       .  S
C2772      C2773   1.408       .  A
C2772      H2777   1.083       .  S
C2773      C2774   1.417       .  A
C2774      O2778   1.372   1_645  S
C2775      C2780   1.409       .  A
C2775      C2784   1.405       .  A
O2776      H2792   0.992       .  S
O2778      H2789   0.992       .  S
C2780      C2781   1.401       .  A
C2780      O2785   1.371       .  S
C2781      C2782   1.408       .  A
C2781      H2786   1.083       .  S
C2782      C2783   1.417       .  A
C2783      C2784   1.407       .  A
C2783      O2787   1.371       .  S
C2784      H2788   1.083   1_455  S
O2785      H2790   0.992       .  S
O2787      H2791   0.992       .  S
C2793      C2794   1.400       .  A
C2793      C2798   1.396       .  A
C2793      H2803   1.084       .  S
C2794      C2799   1.482       .  S
C2794      C2795   1.409       .  A
C2795      C2796   1.404       .  A
C2795      O2800   1.373       .  S
C2796      C2797   1.407       .  A
C2796      H2801   1.083       .  S
C2797      C2798   1.416       .  A
C2798      O2802   1.372       .  S
C2799      C2804   1.406       .  A
C2799      C2808   1.405       .  A
O2800      H2816   0.992       .  S
O2802      H2813   0.992       .  S
C2804      C2805   1.397       .  A
C2804      O2809   1.372       .  S
C2805      C2806   1.408       .  A
C2805      H2810   1.084       .  S
C2806      C2807   1.411       .  A
C2807      C2808   1.402       .  A
C2807      O2811   1.371       .  S
C2808      H2812   1.084       .  S
O2809      H2814   0.992       .  S
O2811      H2815   0.992       .  S
C2817      C2818   1.405       .  A
C2817      C2822   1.405       .  A
C2817      H2827   1.084       .  S
C2818      C2823   1.499       .  S
C2818      C2819   1.410       .  A
C2819      C2820   1.408       .  A
C2819      O2824   1.373       .  S
C2820      C2821   1.410       .  A
C2820      H2825   1.083       .  S
C2821      C2822   1.416       .  A
C2822      O2826   1.371       .  S
C2823      C2828   1.411   1_655  A
C2823      C2832   1.405       .  A
O2824      H2840   0.992   1_655  S
O2826      H2837   0.992       .  S
C2828      C2829   1.408       .  A
C2828      O2833   1.372       .  S
C2829      C2830   1.410       .  A
C2829      H2834   1.083       .  S
C2830      C2831   1.416   1_455  A
C2831      C2832   1.405       .  A
C2831      O2835   1.371       .  S
C2832      H2836   1.084       .  S
O2833      H2838   0.992       .  S
O2835      H2839   0.992       .  S
C2841      C2842   1.400       .  A
C2841      C2846   1.389       .  A
C2841      H2851   1.083       .  S
C2842      C2847   1.480       .  S
C2842      C2843   1.412   1_655  A
C2843      C2844   1.399   1_455  A
C2843      O2848   1.371       .  S
C2844      C2845   1.401       .  A
C2844      H2849   1.084   1_655  S
C2845      C2846   1.414       .  A
C2846      O2850   1.373       .  S
C2847      C2852   1.410   1_655  A
C2847      C2856   1.407   1_655  A
O2848      H2864   0.992       .  S
O2850      H2861   0.991       .  S
C2852      C2853   1.395       .  A
C2852      O2857   1.372       .  S
C2853      C2854   1.402       .  A
C2853      H2858   1.083       .  S
C2854      C2855   1.402       .  A
C2855      C2856   1.398       .  A
C2855      O2859   1.372       .  S
C2856      H2860   1.083   1_455  S
O2857      H2862   0.992       .  S
O2859      H2863   0.992       .  S
C2865      C2866   1.407       .  A
C2865      C2870   1.402       .  A
C2865      H2875   1.083       .  S
C2866      C2871   1.479       .  S
C2866      C2867   1.406       .  A
C2867      C2868   1.393       .  A
C2867      O2872   1.372       .  S
C2868      C2869   1.402       .  A
C2868      H2873   1.084       .  S
C2869      C2870   1.406       .  A
C2870      O2874   1.371       .  S
C2871      C2876   1.406       .  A
C2871      C2880   1.402       .  A
O2872      H2888   0.992       .  S
O2874      H2885   0.992       .  S
C2876      C2877   1.401       .  A
C2876      O2881   1.372       .  S
C2877      C2878   1.408       .  A
C2877      H2882   1.083       .  S
C2878      C2879   1.414       .  A
C2879      C2880   1.396       .  A
C2879      O2883   1.372       .  S
C2880      H2884   1.084       .  S
O2881      H2886   0.992       .  S
O2883      H2887   0.992       .  S
C2889      C2890   1.403       .  A
C2889      C2894   1.404       .  A
C2889      H2899   1.084       .  S
C2890      C2895   1.489       .  S
C2890      C2891   1.407       .  A
C2891      C2892   1.403       .  A
C2891      O2896   1.373       .  S
C2892      C2893   1.409       .  A
C2892      H2897   1.083       .  S
C2893      C2894   1.416       .  A
C2894      O2898   1.372       .  S
C2895      C2900   1.409       .  A
C2895      C2904   1.402       .  A
O2896      H2912   0.992       .  S
O2898      H2909   0.992       .  S
C2900      C2901   1.403       .  A
C2900      O2905   1.371       .  S
C2901      C2902   1.408       .  A
C2901      H2906   1.083       .  S
C2902      C2903   1.416       .  A
C2903      C2904   1.403       .  A
C2903      O2907   1.371   1_565  S
C2904      H2908   1.084       .  S
O2905      H2910   0.992       .  S
O2907      H2911   0.992       .  S
C2913      C2914   1.407       .  A
C2913      C2918   1.403       .  A
C2913      H2923   1.083       .  S
C2914      C2919   1.481   1_565  S
C2914      C2915   1.405       .  A
C2915      C2916   1.388       .  A
C2915      O2920   1.372       .  S
C2916      C2917   1.408       .  A
C2916      H2921   1.083       .  S
C2917      C2918   1.411       .  A
C2918      O2922   1.371       .  S
C2919      C2924   1.410       .  A
C2919      C2928   1.404       .  A
O2920      H2936   0.992   1_565  S
O2922      H2933   0.992       .  S
C2924      C2925   1.401       .  A
C2924      O2929   1.372       .  S
C2925      C2926   1.403       .  A
C2925      H2930   1.084       .  S
C2926      C2927   1.405       .  A
C2927      C2928   1.393       .  A
C2927      O2931   1.372       .  S
C2928      H2932   1.083       .  S
O2929      H2934   0.992       .  S
O2931      H2935   0.992       .  S
C2937      C2938   1.402       .  A
C2937      C2942   1.399       .  A
C2937      H2947   1.084       .  S
C2938      C2943   1.486       .  S
C2938      C2939   1.409       .  A
C2939      C2940   1.402       .  A
C2939      O2944   1.373       .  S
C2940      C2941   1.406       .  A
C2940      H2945   1.083       .  S
C2941      C2942   1.416       .  A
C2942      O2946   1.373       .  S
C2943      C2948   1.409       .  A
C2943      C2952   1.405       .  A
O2944      H2960   0.992       .  S
O2946      H2957   0.992       .  S
C2948      C2949   1.397       .  A
C2948      O2953   1.372       .  S
C2949      C2950   1.407       .  A
C2949      H2954   1.084       .  S
C2950      C2951   1.412       .  A
C2951      C2952   1.404       .  A
C2951      O2955   1.371       .  S
C2952      H2956   1.084       .  S
O2953      H2958   0.992       .  S
O2955      H2959   0.992       .  S
C2961      C2962   1.401       .  A
C2961      C2966   1.402       .  A
C2961      H2971   1.084       .  S
C2962      C2967   1.484       .  S
C2962      C2963   1.408       .  A
C2963      C2964   1.403       .  A
C2963      O2968   1.371       .  S
C2964      C2965   1.407       .  A
C2964      H2969   1.083       .  S
C2965      C2966   1.416       .  A
C2966      O2970   1.371       .  S
C2967      C2972   1.402       .  A
C2967      C2976   1.405       .  A
O2968      H2984   0.992       .  S
O2970      H2981   0.992       .  S
C2972      C2973   1.399       .  A
C2972      O2977   1.372       .  S
C2973      C2974   1.413       .  A
C2973      H2978   1.083       .  S
C2974      C2975   1.412       .  A
C2975      C2976   1.406       .  A
C2975      O2979   1.371       .  S
C2976      H2980   1.084       .  S
O2977      H2982   0.992       .  S
O2979      H2983   0.992       .  S
C2985      C2986   1.403       .  A
C2985      C2990   1.403       .  A
C2985      H2995   1.083       .  S
C2986      C2991   1.493       .  S
C2986      C2987   1.409       .  A
C2987      C2988   1.405       .  A
C2987      O2992   1.372       .  S
C2988      C2989   1.410       .  A
C2988      H2993   1.083       .  S
C2989      C2990   1.417       .  A
C2990      O2994   1.371       .  S
C2991      C2996   1.410       .  A
C2991      C3000   1.404       .  A
O2992      H3008   0.992       .  S
O2994      H3005   0.992       .  S
C2996      C2997   1.404       .  A
C2996      O3001   1.372       .  S
C2997      C2998   1.407       .  A
C2997      H3002   1.083       .  S
C2998      C2999   1.416       .  A
C2999      C3000   1.405       .  A
C2999      O3003   1.372       .  S
C3000      H3004   1.083       .  S
O3001      H3006   0.991       .  S
O3003      H3007   0.992       .  S
