geometry optimzed in LAMMPS
_audit_creation_date              2020-12-01 
_audit_creation_method            'lammps2cif' 
_symmetry_space_group_name_H-M    'P1' 
_symmetry_Int_Tables_number       1 
_symmetry_cell_setting            triclinic 
loop_ 
_symmetry_equiv_pos_as_xyz 
  x,y,z 
_cell_length_a                    29.5812862 
_cell_length_b                    45.19631852211965 
_cell_length_c                    26.99798911728915 
_cell_angle_alpha                 90.21067723664508 
_cell_angle_beta                  102.57192142910625 
_cell_angle_gamma                 89.74585189716852 
loop_ 
_atom_site_label 
_atom_site_type_symbol 
_atom_site_fract_x 
_atom_site_fract_y 
_atom_site_fract_z 
_atom_site_charge 
O1          O  0.19349842  0.62910756  0.70838413    -0.85300
O2          O  0.26520197  0.58997874  0.74186340    -0.82400
C3          C  0.24704017  0.56442777  0.73991344     0.98100
O4          O  0.22459894  0.55427271  0.69845917    -0.82400
O5          O  0.18070151  0.54841367  0.59687050    -0.85100
C6          C  0.14138418  0.56084576  0.59285458     1.02600
O7          O  0.13997261  0.58726703  0.60635859    -0.77800
O8          O  0.15952967  0.64394541  0.63300022    -0.78000
C9          C  0.15816753  0.63971308  0.67901451     1.02600
O10         O  0.24920130  0.66093781  0.64696177    -0.85300
O11         O  0.31678232  0.61761033  0.67614337    -0.82400
C12         C  0.33593449  0.59244089  0.67996120     0.98100
O13         O  0.31124661  0.56915668  0.67283701    -0.82400
O14         O  0.26568779  0.56854391  0.57191547    -0.85000
C15         C  0.23580482  0.57324396  0.53184252     1.02600
O16         O  0.19922175  0.58767193  0.53384780    -0.77900
O17         O  0.22732335  0.64280901  0.56989601    -0.78000
C18         C  0.24587030  0.66308325  0.59915310     1.02600
Cr19       Cr  0.25413864  0.62313087  0.68965675     1.93700
Cr20       Cr  0.24449778  0.56276813  0.63546102     1.93200
Cr21       Cr  0.18474369  0.61457662  0.58908110     1.39100
O22         O  0.22858461  0.60028695  0.63787212    -1.23100
O23         O  0.83374587  0.63697439  0.80821666    -0.85300
O24         O  0.79358909  0.58574423  0.76391902    -0.82400
C25         C  0.78065264  0.55909922  0.76314406     0.98100
O26         O  0.76075610  0.54943107  0.79654506    -0.82400
O27         O  0.83251155  0.54247924  0.87981420    -0.85100
C28         C  0.86487541  0.55018080  0.91614226     1.02600
O29         O  0.86115774  0.57344540  0.94018052    -0.77800
O30         O  0.87916611  0.61174537  0.86814783    -0.78000
C31         C  0.87339146  0.62642959  0.82760885     1.02600
O32         O  0.74957108  0.64953958  0.84482514    -0.85300
O33         O  0.70745116  0.60088940  0.79058652    -0.82400
C34         C  0.68391133  0.58771296  0.81776055     0.98100
O35         O  0.70403163  0.57501260  0.85826490    -0.82400
O36         O  0.77294295  0.56384814  0.94309241    -0.85000
C37         C  0.77819590  0.58523223  0.97408069     1.02600
O38         O  0.79263898  0.61014057  0.96251560    -0.77900
O39         O  0.81667149  0.65337851  0.89777712    -0.78000
C40         C  0.77686539  0.66353635  0.87945101     1.02600
Cr41       Cr  0.77233135  0.61691204  0.80625864     1.93700
Cr42       Cr  0.76916710  0.56049766  0.86905439     1.93200
Cr43       Cr  0.83395386  0.61133800  0.91294627     1.39100
O44         O  0.79111176  0.59632117  0.86294586    -1.23100
O45         O  0.76224920  0.35554682  0.34576984    -0.85300
O46         O  0.70961250  0.39957903  0.28859709    -0.82400
C47         C  0.68412225  0.40900274  0.31740926     0.98100
O48         O  0.70188770  0.42354002  0.35689672    -0.82400
O49         O  0.76808905  0.44684019  0.43507821    -0.85100
C50         C  0.77801417  0.42726531  0.46872295     1.02600
O51         O  0.79739090  0.40340451  0.46016077    -0.77800
O52         O  0.82709556  0.35923179  0.40294572    -0.78000
C53         C  0.79051956  0.34516224  0.38406765     1.02600
O54         O  0.84164250  0.37382834  0.30756682    -0.85300
O55         O  0.79259228  0.42268892  0.25980993    -0.82400
C56         C  0.77132446  0.44730658  0.25708898     0.98100
O57         O  0.74478391  0.45191896  0.28667596    -0.82400
O58         O  0.81720231  0.47026508  0.36513465    -0.85000
C59         C  0.85177442  0.46728944  0.40175944     1.02600
O60         O  0.85797030  0.44386682  0.42764916    -0.77900
O61         O  0.88339096  0.40179377  0.36584610    -0.78000
C62         C  0.88038450  0.38496758  0.32800475     1.02600
Cr63       Cr  0.77753120  0.38953878  0.30419891     1.93700
Cr64       Cr  0.76039712  0.44559384  0.36079640     1.93200
Cr65       Cr  0.83775714  0.40265125  0.40993517     1.39100
O66         O  0.79180820  0.41239776  0.35872905    -1.23100
O67         O  0.24584896  0.34035309  0.14089497    -0.85300
O68         O  0.31612220  0.38044853  0.17544283    -0.82400
C69         C  0.33808039  0.40439462  0.18272548     0.98100
O70         O  0.31663236  0.42888111  0.17445931    -0.82400
O71         O  0.27444221  0.43050351  0.07238339    -0.85100
C72         C  0.24492492  0.42825790  0.03137762     1.02600
O73         O  0.20622945  0.41612825  0.03140940    -0.77800
O74         O  0.22697652  0.35982336  0.06469939    -0.78000
C75         C  0.24224835  0.33837660  0.09288350     1.02600
O76         O  0.19106352  0.37355807  0.20178272    -0.85300
O77         O  0.26357224  0.41058671  0.23999435    -0.82400
C78         C  0.24774317  0.43701255  0.23795949     0.98100
O79         O  0.23081481  0.44870339  0.19583197    -0.82400
O80         O  0.19157080  0.45566817  0.09497795    -0.85000
C81         C  0.15078339  0.44592901  0.09123064     1.02600
O82         O  0.14431295  0.41944020  0.10091492    -0.77900
O83         O  0.15669923  0.36153529  0.12443542    -0.78000
C84         C  0.15609786  0.36389831  0.17105807     1.02600
Cr85       Cr  0.25254841  0.37770908  0.18593004     1.93700
Cr86       Cr  0.25202048  0.43824226  0.13451653     1.93200
Cr87       Cr  0.18683998  0.38992849  0.08400721     1.39100
O88         O  0.23088896  0.40182956  0.13496627    -1.23100
O89         O  0.73435684  0.84589384  0.12685753    -0.85300
O90         O  0.80937578  0.88257237  0.16116388    -0.82400
C91         C  0.83343837  0.90572977  0.16949567     0.98100
O92         O  0.81354453  0.93076591  0.16737788    -0.82400
O93         O  0.77151684  0.93704535  0.06625993    -0.85100
C94         C  0.74139877  0.93619165  0.02543796     1.02600
O95         O  0.70214205  0.92456983  0.02400275    -0.77800
O96         O  0.71439190  0.86698772  0.05218414    -0.78000
C97         C  0.72796759  0.84460746  0.07871618     1.02600
O98         O  0.68534336  0.87927791  0.19172099    -0.85300
O99         O  0.76139519  0.91221972  0.23056850    -0.82400
C100        C  0.74547567  0.93833296  0.23204122     0.98100
O101        O  0.72951845  0.95240392  0.19189920    -0.82400
O102        O  0.69196922  0.96448724  0.09025255    -0.85000
C103        C  0.65003196  0.95646220  0.08311914     1.02600
O104        O  0.64064061  0.93056847  0.09357691    -0.77900
O105        O  0.64637958  0.87189027  0.11404989    -0.78000
C106        C  0.64828977  0.87252768  0.16135424     1.02600
Cr107      Cr  0.74615414  0.88167731  0.17395765     1.92100
Cr108      Cr  0.74994498  0.94357636  0.12912116     1.93200
Cr109      Cr  0.67934664  0.89896388  0.07465509     1.39100
O110        O  0.72547811  0.90785939  0.12575702    -1.23100
O111        O  0.25866725  0.84925411  0.34972024    -0.85300
O112        O  0.20630644  0.89025641  0.28441118    -0.82400
C113        C  0.17935238  0.90278779  0.30874875     0.98100
O114        O  0.19586608  0.91938748  0.34580842    -0.82400
O115        O  0.25862003  0.94184108  0.42674629    -0.85100
C116        C  0.26692662  0.92248320  0.46128598     1.02600
O117        O  0.28831178  0.89884599  0.45567034    -0.77800
O118        O  0.32468303  0.85461689  0.40361015    -0.78000
C119        C  0.28822951  0.83990245  0.38760397     1.02600
O120        O  0.34008451  0.86631041  0.31251287    -0.85300
O121        O  0.29006907  0.91046696  0.25630170    -0.82400
C122        C  0.27094916  0.93556491  0.24871447     0.98100
O123        O  0.24614420  0.94507779  0.27792192    -0.82400
O124        O  0.31332046  0.96403579  0.35889718    -0.85000
C125        C  0.34510068  0.96234881  0.39835760     1.02600
O126        O  0.34878225  0.93996668  0.42651123    -0.77900
O127        O  0.37803273  0.89852716  0.36598420    -0.78000
C128        C  0.37688580  0.88071155  0.32976279     1.02600
Cr129      Cr  0.27444203  0.88079583  0.30441269     1.93700
Cr130      Cr  0.25581115  0.94000002  0.35256252     1.93200
Cr131      Cr  0.33154426  0.89836217  0.40874710     1.39100
O132        O  0.28676609  0.90631593  0.35539553    -1.23100
O133        O  0.31212651  0.11820961  0.76766581    -0.85300
O134        O  0.23537062  0.08241675  0.74074818    -0.82400
C135        C  0.25021437  0.05593007  0.74200025     0.98100
O136        O  0.27298217  0.04521721  0.78266674    -0.82400
O137        O  0.32405242  0.03834164  0.87877316    -0.85100
C138        C  0.36396868  0.04798543  0.87670928     1.02600
O139        O  0.36870249  0.07476681  0.86714095    -0.77800
O140        O  0.35276809  0.13246969  0.84091750    -0.78000
C141        C  0.34947674  0.12803020  0.79395804     1.02600
O142        O  0.26609883  0.15380441  0.83488396    -0.85300
O143        O  0.19328686  0.11390822  0.81150304    -0.82400
C144        C  0.17123677  0.08990364  0.80801910     0.98100
O145        O  0.19291688  0.06545434  0.81710053    -0.82400
O146        O  0.24748371  0.06377051  0.91548116    -0.85000
C147        C  0.28133597  0.06706051  0.95237319     1.02600
O148        O  0.31771900  0.07969302  0.94563134    -0.77900
O149        O  0.29269216  0.13602672  0.91142557    -0.78000
C150        C  0.27590189  0.15717969  0.88307449     1.02600
Cr151      Cr  0.25389942  0.11567287  0.79246502     1.93700
Cr152      Cr  0.26051042  0.05597434  0.84818738     1.93200
Cr153      Cr  0.32913729  0.10494216  0.88806758     1.39100
O154        O  0.28046956  0.09234233  0.84315658    -1.23100
O155        O  0.67938321  0.13308077  0.69341207    -0.85300
O156        O  0.75135120  0.09593713  0.73148221    -0.82400
C157        C  0.73044700  0.07152240  0.73167317     0.98100
O158        O  0.71108178  0.05931156  0.69071044    -0.82400
O159        O  0.67136000  0.05024493  0.58934209    -0.85100
C160        C  0.63168666  0.06232311  0.58211612     1.02600
O161        O  0.62878714  0.08938274  0.59112739    -0.77800
O162        O  0.64666163  0.14622088  0.61667073    -0.78000
C163        C  0.64392217  0.14204864  0.66231325     1.02600
O164        O  0.73595415  0.16447847  0.63322750    -0.85300
O165        O  0.80436249  0.12195355  0.66639862    -0.82400
C166        C  0.82374374  0.09682253  0.67219675     0.98100
O167        O  0.79942532  0.07339146  0.66671136    -0.82400
O168        O  0.75638280  0.06952582  0.56551107    -0.85000
C169        C  0.72760226  0.07334025  0.52417765     1.02600
O170        O  0.69160747  0.08881219  0.52355016    -0.77900
O171        O  0.71782444  0.14502647  0.55695202    -0.78000
C172        C  0.73469861  0.16593091  0.58584568     1.02600
Cr173      Cr  0.74091958  0.12751646  0.67737193     1.93700
Cr174      Cr  0.73352354  0.06584799  0.62831499     1.93200
Cr175      Cr  0.67449308  0.11664673  0.57551321     1.39100
O176        O  0.71707008  0.10342549  0.62670121    -1.23100
C177        C  0.38963774  0.13391020  0.77034237    -0.12000
C178        C  0.39892422  0.11618892  0.73026227     0.03500
C179        C  0.43896197  0.12097719  0.71160807    -0.12500
C180        C  0.47100504  0.14279776  0.73261742     0.18400
C181        C  0.46158475  0.16081408  0.77194608    -0.09500
C182        C  0.42138101  0.15623580  0.79051737    -0.02500
H183        H  0.44621658  0.10666376  0.68197331     0.04900
C184        C  0.51546726  0.14474868  0.71548443     0.20400
H185        H  0.41517129  0.17002664  0.82127900     0.10100
C186        C  0.51586054  0.15475308  0.66639389    -0.15900
C187        C  0.55700453  0.15505884  0.64819381     0.03100
C188        C  0.59935434  0.14553874  0.67982917    -0.11200
C189        C  0.59832535  0.13567326  0.72912576    -0.01200
C190        C  0.55715648  0.13473929  0.74654981    -0.06400
H191        H  0.48373839  0.16188925  0.64173521     0.06100
H192        H  0.62950082  0.12732948  0.75399066     0.09500
Br193      Br  0.50285636  0.19181486  0.80167371    -0.06100
Br194      Br  0.36184330  0.08269648  0.70327647    -0.03000
Br195      Br  0.55174365  0.16781266  0.57942112    -0.00200
Br196      Br  0.55912308  0.11716672  0.81163331    -0.04600
C197        C  0.12010260  0.09032207  0.78853747    -0.12000
C198        C  0.09959504  0.10815137  0.74651270     0.03500
C199        C  0.05154549  0.10788408  0.72787582    -0.12500
C200        C  0.02281967  0.09007907  0.75007781     0.18400
C201        C  0.04300142  0.07196717  0.79146521    -0.09500
C202        C  0.09129817  0.07195932  0.81006800    -0.02500
H203        H  0.03641888  0.12168683  0.69573224     0.04900
C204        C  0.97184375  0.09155765  0.73030088     0.20400
H205        H  0.10629335  0.05794108  0.84193818     0.10100
C206        C  0.94963202  0.07030287  0.69539403    -0.15900
C207        C  0.90165733  0.07176569  0.67526380     0.03100
C208        C  0.87500351  0.09494340  0.68991039    -0.11200
C209        C  0.89767371  0.11639728  0.72430148    -0.01200
C210        C  0.94544107  0.11477199  0.74453112    -0.06400
H211        H  0.96976783  0.05264253  0.68349342     0.06100
H212        H  0.87798668  0.13421476  0.73646707     0.09500
Br213      Br  0.00552206  0.04767219  0.82442979    -0.06100
Br214      Br  0.13541586  0.13195335  0.71046817    -0.03000
Br215      Br  0.87506012  0.04250262  0.62587050    -0.00200
Br216      Br  0.97322770  0.14437693  0.79254581    -0.04600
C217        C  0.37850042  0.98611578  0.41462848    -0.12000
C218        C  0.38162000  0.99864975  0.46293289     0.03500
C219        C  0.42289825  0.01136031  0.48846785    -0.12500
C220        C  0.46086018  0.01356015  0.46539016     0.18400
C221        C  0.45621369  0.00365340  0.41483466    -0.09500
C222        C  0.41523359  0.98967095  0.39001376    -0.02500
H223        H  0.42565688  0.01902122  0.52707608     0.04900
C224        C  0.50481682  0.02552875  0.49574843     0.20400
H225        H  0.41320823  0.97993106  0.35286799     0.10100
C226        C  0.54534146  0.00817841  0.50422023    -0.15900
C227        C  0.58711151  0.01869404  0.53405993     0.03100
C228        C  0.58830440  0.04686834  0.55739091    -0.11200
C229        C  0.54679426  0.06328962  0.55069326    -0.01200
C230        C  0.50591458  0.05329025  0.51960624    -0.06400
H231        H  0.54455273  0.98640181  0.48714420     0.06100
H232        H  0.54624972  0.08496411  0.56783039     0.09500
Br233      Br  0.50481613  0.00814601  0.37856869    -0.06100
Br234      Br  0.33057940  0.99807338  0.49613694    -0.03000
Br235      Br  0.64068630  0.99374515  0.53943094    -0.00200
Br236      Br  0.45360286  0.07973741  0.50842754    -0.04600
C237        C  0.25546899  0.93042625  0.50980129    -0.12000
C238        C  0.29117872  0.93644816  0.55238691     0.03500
C239        C  0.28264182  0.95556981  0.59016241    -0.12500
C240        C  0.23874859  0.96838666  0.58637849     0.18400
C241        C  0.20194933  0.95976188  0.54691066    -0.09500
C242        C  0.21062051  0.94105503  0.50875120    -0.02500
H243        H  0.31093915  0.96172551  0.62121692     0.04900
C244        C  0.23299010  0.99148149  0.62309855     0.20400
H245        H  0.18292743  0.93651528  0.47619359     0.10100
C246        C  0.23587051  0.02150343  0.61060926    -0.15900
C247        C  0.23809299  0.04365856  0.64768270     0.03100
C248        C  0.23877202  0.03548916  0.69818962    -0.11200
C249        C  0.23222929  0.00555002  0.70910704    -0.01200
C250        C  0.22923448  0.98370816  0.67212435    -0.06400
H251        H  0.23810705  0.02757946  0.57241987     0.06100
H252        H  0.23090785  0.99888422  0.74729362     0.09500
Br253      Br  0.14016080  0.97415635  0.54254530    -0.06100
Br254      Br  0.35359510  0.92296940  0.55687429    -0.03000
Br255      Br  0.24291781  0.08402724  0.62790026    -0.00200
Br256      Br  0.22178659  0.94334311  0.69053010    -0.04600
C257        C  0.28150646  0.05224679  0.00136245    -0.12000
C258        C  0.24030427  0.04406891  0.01619956     0.03500
C259        C  0.24253228  0.02572508  0.05831054    -0.12500
C260        C  0.28514287  0.01528974  0.08625279     0.18400
C261        C  0.32630873  0.02434991  0.07307710    -0.09500
C262        C  0.32429334  0.04271576  0.03107293    -0.02500
H263        H  0.21076106  0.01923524  0.06902742     0.04900
C264        C  0.28553687  0.99493985  0.12895668     0.20400
H265        H  0.35639622  0.04850856  0.02044759     0.10100
C266        C  0.28974024  0.96434702  0.12187969    -0.15900
C267        C  0.28606885  0.94432960  0.16040501     0.03100
C268        C  0.27759296  0.95503148  0.20678724    -0.11200
C269        C  0.27479726  0.98583314  0.21388754    -0.01200
C270        C  0.27883962  0.00566272  0.17563834    -0.06400
H271        H  0.29483820  0.95601546  0.08583655     0.06100
H272        H  0.26941097  0.99465286  0.24950641     0.09500
Br273      Br  0.38586065  0.01184772  0.11101620    -0.06100
Br274      Br  0.18001084  0.05737834  0.98141816    -0.03000
Br275      Br  0.29002376  0.90291343  0.14593666    -0.00200
Br276      Br  0.27514125  0.04727002  0.18875086    -0.04600
C277        C  0.61267534  0.97407855  0.05190725    -0.12000
C278        C  0.57244472  0.98140543  0.06896143     0.03500
C279        C  0.53299582  0.99131629  0.03435202    -0.12500
C280        C  0.53194184  0.99241303  0.98200556     0.18400
C281        C  0.57259786  0.98525329  0.96507011    -0.09500
C282        C  0.61267908  0.97683059  0.00013687    -0.02500
H283        H  0.50256347  0.99746823  0.04823333     0.04900
C284        C  0.48880646  0.00243885  0.94660834     0.20400
H285        H  0.64291821  0.97016630  0.98629060     0.10100
C286        C  0.49069777  0.02686832  0.91537424    -0.15900
C287        C  0.45034915  0.03977403  0.88706132     0.03100
C288        C  0.40639937  0.02949104  0.89230663    -0.11200
C289        C  0.40458451  0.00347570  0.92019029    -0.01200
C290        C  0.44528024  0.98967854  0.94648129    -0.06400
H291        H  0.52380674  0.03666325  0.91417826     0.06100
H292        H  0.37147375  0.99453399  0.92359094     0.09500
Br293      Br  0.57427962  0.98333670  0.89437533    -0.06100
Br294      Br  0.56958466  0.97723462  0.13886271    -0.03000
Br295      Br  0.45865790  0.07143601  0.84251238    -0.00200
Br296      Br  0.43952840  0.95352244  0.98167311    -0.04600
C297        C  0.74797097  0.95457832  0.98295243    -0.12000
C298        C  0.73592278  0.94497837  0.93223274     0.03500
C299        C  0.73568921  0.96524546  0.89307227    -0.12500
C300        C  0.74615315  0.99519952  0.90395539     0.18400
C301        C  0.75763996  0.00476767  0.95473397    -0.09500
C302        C  0.75955408  0.98435755  0.99367817    -0.02500
H303        H  0.72634391  0.95780072  0.85401781     0.04900
C304        C  0.74226014  0.01641665  0.86188164     0.20400
H305        H  0.76704089  0.99222225  0.03256411     0.10100
C306        C  0.69849132  0.02200850  0.83094974    -0.15900
C307        C  0.69349807  0.04119569  0.78964871     0.03100
C308        C  0.73274208  0.05536054  0.77924488    -0.11200
C309        C  0.77628197  0.05054519  0.81123906    -0.01200
C310        C  0.78141130  0.03087958  0.85191242    -0.06400
H311        H  0.66817815  0.01114738  0.83871229     0.06100
H312        H  0.80680843  0.06078147  0.80280790     0.09500
Br313      Br  0.76606948  0.04583202  0.97278366    -0.06100
Br314      Br  0.71957130  0.90463711  0.91501265    -0.03000
Br315      Br  0.63241629  0.04757139  0.74895998    -0.00200
Br316      Br  0.84288484  0.02271006  0.89009614    -0.04600
C317        C  0.73364227  0.05643251  0.47848231    -0.12000
C318        C  0.69867946  0.05444102  0.43337082     0.03500
C319        C  0.70343544  0.03418495  0.39541138    -0.12500
C320        C  0.74174606  0.01507196  0.40146033     0.18400
C321        C  0.77746969  0.01786862  0.44520510    -0.09500
C322        C  0.77335771  0.03846492  0.48272974    -0.02500
H323        H  0.67643286  0.03288819  0.36120735     0.04900
C324        C  0.74418174  0.99295170  0.36121446     0.20400
H325        H  0.80078307  0.03940098  0.51655709     0.10100
C326        C  0.78153295  0.99393426  0.33690761    -0.15900
C327        C  0.78405165  0.97451364  0.29723214     0.03100
C328        C  0.74838380  0.95399163  0.28035944    -0.11200
C329        C  0.71129047  0.95252585  0.30485582    -0.01200
C330        C  0.70905618  0.97166034  0.34526910    -0.06400
H331        H  0.80840997  0.01034839  0.34810453     0.06100
H332        H  0.68330072  0.93711767  0.29148167     0.09500
Br333      Br  0.83127513  0.99273913  0.45778238    -0.06100
Br334      Br  0.64235287  0.07725880  0.42088716    -0.03000
Br335      Br  0.83610281  0.97756930  0.26586861    -0.00200
Br336      Br  0.65722815  0.96778631  0.37699249    -0.04600
C337        C  0.60638187  0.86737142  0.18148707    -0.12000
C338        C  0.60878360  0.85339499  0.22869097     0.03500
C339        C  0.57037085  0.85387494  0.25110250    -0.12500
C340        C  0.52927008  0.86817266  0.22736883     0.18400
C341        C  0.52633430  0.88147557  0.17964745    -0.09500
C342        C  0.56454211  0.88067261  0.15683506    -0.02500
H343        H  0.57281563  0.84349541  0.28771635     0.04900
C344        C  0.49091290  0.87036689  0.25439829     0.20400
H345        H  0.56242054  0.89209087  0.12116415     0.10100
C346        C  0.49575320  0.88908478  0.29666141    -0.15900
C347        C  0.46005187  0.89234745  0.32289487     0.03100
C348        C  0.41793606  0.87661594  0.30653861    -0.11200
C349        C  0.41408261  0.85721845  0.26478779    -0.01200
C350        C  0.45008068  0.85391058  0.23909088    -0.06400
H351        H  0.52751801  0.90147310  0.30906782     0.06100
H352        H  0.38271373  0.84460810  0.25154075     0.09500
Br353      Br  0.47235535  0.90313465  0.14630163    -0.06100
Br354      Br  0.66347335  0.83319764  0.26419281    -0.03000
Br355      Br  0.47240535  0.91868848  0.38029899    -0.00200
Br356      Br  0.44240235  0.82621984  0.18388223    -0.04600
C357        C  0.12810042  0.89934353  0.29096643    -0.12000
C358        C  0.09564637  0.91057831  0.31812817     0.03500
C359        C  0.04807726  0.90923146  0.29673499    -0.12500
C360        C  0.03156635  0.89674072  0.24873193     0.18400
C361        C  0.06326640  0.88467773  0.22226088    -0.09500
C362        C  0.11086620  0.88590074  0.24338836    -0.02500
H363        H  0.02372934  0.91839395  0.31739057     0.04900
C364        C  0.98131972  0.89807344  0.22594778     0.20400
H365        H  0.13446317  0.87705227  0.22153618     0.10100
C366        C  0.96244717  0.92432696  0.20263601    -0.15900
C367        C  0.91482579  0.92707352  0.18234100     0.03100
C368        C  0.88478773  0.90324750  0.18593307    -0.11200
C369        C  0.90428114  0.87664376  0.20824780    -0.01200
C370        C  0.95198710  0.87396614  0.22816290    -0.06400
H371        H  0.98502960  0.94283630  0.20018004     0.06100
H372        H  0.88222495  0.85799138  0.21148797     0.09500
Br373      Br  0.04308935  0.86751298  0.15611094    -0.06100
Br374      Br  0.11251077  0.92819848  0.38431085    -0.03000
Br375      Br  0.89396194  0.96350942  0.14838684    -0.00200
Br376      Br  0.97556683  0.83733345  0.25934539    -0.04600
C377        C  0.25352860  0.31108130  0.06684209    -0.12000
C378        C  0.23905665  0.28258066  0.07778239     0.03500
C379        C  0.24285463  0.25870083  0.04524890    -0.12500
C380        C  0.26065834  0.26269377  0.00147882     0.18400
C381        C  0.27618570  0.29089437  0.99130968    -0.09500
C382        C  0.27255805  0.31463657  0.02367621    -0.02500
H383        H  0.23124041  0.23697255  0.05371795     0.04900
C384        C  0.26517871  0.23694190  0.96838779     0.20400
H385        H  0.28361141  0.33633511  0.01421870     0.10100
C386        C  0.22980887  0.23011950  0.92588683    -0.15900
C387        C  0.23310347  0.20503383  0.89560538     0.03100
C388        C  0.27207329  0.18619286  0.90820530    -0.11200
C389        C  0.30787219  0.19383578  0.94977975    -0.01200
C390        C  0.30486182  0.21892607  0.97931836    -0.06400
H391        H  0.19927176  0.24406929  0.91676462     0.06100
H392        H  0.33842930  0.17994213  0.95979850     0.09500
Br393      Br  0.30198444  0.29807645  0.93314725    -0.06100
Br394      Br  0.21040153  0.27549391  0.13383650    -0.03000
Br395      Br  0.18239327  0.19640979  0.83998660    -0.00200
Br396      Br  0.35582461  0.22774644  0.03461718    -0.04600
C397        C  0.78272206  0.31660538  0.40902957    -0.12000
C398        C  0.73847753  0.30406652  0.40652815     0.03500
C399        C  0.73364780  0.27956821  0.43698249    -0.12500
C400        C  0.77197693  0.26726956  0.47082437     0.18400
C401        C  0.81610293  0.27918105  0.47245806    -0.09500
C402        C  0.82112971  0.30327709  0.44172923    -0.02500
H403        H  0.69948260  0.27041531  0.43508709     0.04900
C404        C  0.76543366  0.24203643  0.50395829     0.20400
H405        H  0.85557157  0.31223340  0.44481572     0.10100
C406        C  0.78425737  0.21425288  0.49640499    -0.15900
C407        C  0.77709347  0.18972457  0.52529885     0.03100
C408        C  0.75023317  0.19254458  0.56237223    -0.11200
C409        C  0.73322538  0.22059832  0.57167939    -0.01200
C410        C  0.74060049  0.24522126  0.54281298    -0.06400
H411        H  0.80415608  0.21155444  0.46742170     0.06100
H412        H  0.71257328  0.22314956  0.59998593     0.09500
Br413      Br  0.87033585  0.26471646  0.51873699    -0.06100
Br414      Br  0.68277774  0.32028166  0.36568038    -0.03000
Br415      Br  0.80558447  0.15284108  0.51343565    -0.00200
Br416      Br  0.71631283  0.28279597  0.55790795    -0.04600
C417        C  0.63296925  0.40543256  0.30212028    -0.12000
C418        C  0.61172471  0.38416385  0.26575752     0.03500
C419        C  0.56354157  0.38408725  0.24847810    -0.12500
C420        C  0.53566398  0.40489305  0.26631434     0.18400
C421        C  0.55625484  0.42516370  0.30407268    -0.09500
C422        C  0.60440024  0.42529165  0.32169467    -0.02500
H423        H  0.54773696  0.36803643  0.22017815     0.04900
C424        C  0.48520901  0.40507296  0.24470780     0.20400
H425        H  0.61954046  0.44165260  0.34969400     0.10100
C426        C  0.45776076  0.38275024  0.25852392    -0.15900
C427        C  0.40997653  0.38200564  0.23859866     0.03100
C428        C  0.38879303  0.40387767  0.20355346    -0.11200
C429        C  0.41654705  0.42622638  0.18980094    -0.01200
C430        C  0.46440719  0.42678985  0.20972258    -0.06400
H431        H  0.47356422  0.36602880  0.28550620     0.06100
H432        H  0.40107008  0.44312123  0.16302712     0.09500
Br433      Br  0.51995708  0.45318850  0.33239741    -0.06100
Br434      Br  0.64551895  0.35429637  0.23790689    -0.03000
Br435      Br  0.37570097  0.35166338  0.26391414    -0.00200
Br436      Br  0.50032228  0.45707737  0.18703365    -0.04600
C437        C  0.92186715  0.37768437  0.30694431    -0.12000
C438        C  0.96441358  0.39316437  0.32066409     0.03500
C439        C  0.00063901  0.38658485  0.29645431    -0.12500
C440        C  0.99609111  0.36452136  0.25910994     0.18400
C441        C  0.95501381  0.34800227  0.24725724    -0.09500
C442        C  0.91834756  0.35479854  0.27061489    -0.02500
H443        H  0.03253001  0.39908667  0.30637032     0.04900
C444        C  0.03461597  0.35962539  0.23281652     0.20400
H445        H  0.88684562  0.34198700  0.26011375     0.10100
C446        C  0.07631863  0.34736399  0.25981827    -0.15900
C447        C  0.11547668  0.34614230  0.23857275     0.03100
C448        C  0.11348980  0.35767260  0.18958374    -0.11200
C449        C  0.07085941  0.36814686  0.16136752    -0.01200
C450        C  0.03170541  0.36939314  0.18267792    -0.06400
H451        H  0.07872897  0.33940692  0.29812475     0.06100
H452        H  0.06873896  0.37735484  0.12392221     0.09500
Br453      Br  0.94792232  0.31555135  0.20024546    -0.06100
Br454      Br  0.97626306  0.42384041  0.37114215    -0.03000
Br455      Br  0.17068868  0.32834974  0.27799597    -0.00200
Br456      Br  0.97633632  0.38718360  0.14359636    -0.04600
C457        C  0.76388840  0.69176485  0.90024354    -0.12000
C458        C  0.72281975  0.69477260  0.91823367     0.03500
C459        C  0.71650774  0.71954885  0.94736087    -0.12500
C460        C  0.75039167  0.74170135  0.95844994     0.18400
C461        C  0.79044727  0.73932759  0.93855761    -0.09500
C462        C  0.79710982  0.71438415  0.91022182    -0.02500
H463        H  0.68547256  0.72126432  0.96236630     0.04900
C464        C  0.74339767  0.76714841  0.99065752     0.20400
H465        H  0.82893457  0.71232427  0.89675405     0.10100
C466        C  0.77282310  0.77100439  0.03871678    -0.15900
C467        C  0.76823740  0.79571491  0.06893020     0.03100
C468        C  0.73315704  0.81676507  0.05132284    -0.11200
C469        C  0.70338000  0.81241089  0.00353409    -0.01200
C470        C  0.70837468  0.78807177  0.97326498    -0.06400
H471        H  0.80018481  0.75508212  0.05217744     0.06100
H472        H  0.67637502  0.82840123  0.98904419     0.09500
Br473      Br  0.83671373  0.76971686  0.94860125    -0.06100
Br474      Br  0.67639586  0.66455183  0.90825208    -0.03000
Br475      Br  0.81324821  0.80091458  0.13121662    -0.00200
Br476      Br  0.66841923  0.78544479  0.90703427    -0.04600
C477        C  0.77336757  0.43577251  0.51982640    -0.12000
C478        C  0.73431123  0.45215491  0.52609090     0.03500
C479        C  0.73772346  0.47131762  0.56739203    -0.12500
C480        C  0.78007070  0.47514268  0.60205228     0.18400
C481        C  0.81799060  0.45680787  0.59823556    -0.09500
C482        C  0.81405175  0.43692533  0.55773065    -0.02500
H483        H  0.70779319  0.48431695  0.57115171     0.04900
C484        C  0.78361289  0.49781210  0.64241317     0.20400
H485        H  0.84464042  0.42506747  0.55265569     0.10100
C486        C  0.79565768  0.48858689  0.69290295    -0.15900
C487        C  0.79767882  0.50861408  0.73254533     0.03100
C488        C  0.78631962  0.53869884  0.72218970    -0.11200
C489        C  0.77553327  0.54827210  0.67164748    -0.01200
C490        C  0.77384478  0.52809780  0.63174874    -0.06400
H491        H  0.80302443  0.46543637  0.70160789     0.06100
H492        H  0.76658238  0.57125286  0.66308673     0.09500
Br493      Br  0.87788192  0.46084366  0.64270112    -0.06100
Br494      Br  0.67681666  0.45106511  0.47665624    -0.03000
Br495      Br  0.81735931  0.49306636  0.79977595    -0.00200
Br496      Br  0.75748603  0.54322467  0.56385497    -0.04600
C497        C  0.77524388  0.47107716  0.21988156    -0.12000
C498        C  0.76092388  0.50068732  0.22708920     0.03500
C499        C  0.76127281  0.52216505  0.19014889    -0.12500
C500        C  0.77664810  0.51549209  0.14616994     0.18400
C501        C  0.79330255  0.48674900  0.13971312    -0.09500
C502        C  0.79234292  0.46476148  0.17627590    -0.02500
H503        H  0.74934924  0.54438895  0.19575146     0.04900
C504        C  0.77384740  0.53873916  0.10702780     0.20400
H505        H  0.80423701  0.44263010  0.17012209     0.10100
C506        C  0.81290574  0.55589011  0.10548360    -0.15900
C507        C  0.81254434  0.57563094  0.06541174     0.03100
C508        C  0.77286462  0.57799588  0.02568997    -0.11200
C509        C  0.73249046  0.56291923  0.03013164    -0.01200
C510        C  0.73259577  0.54366400  0.07064512    -0.06400
H511        H  0.84440798  0.55289249  0.13423176     0.06100
H512        H  0.70187247  0.56419037  0.99970546     0.09500
Br513      Br  0.81693280  0.47665215  0.08107267    -0.06100
Br514      Br  0.74191070  0.51478726  0.28687679    -0.03000
Br515      Br  0.86898292  0.59579104  0.06321508    -0.00200
Br516      Br  0.67669884  0.52276473  0.07257600    -0.04600
C517        C  0.90712516  0.53243614  0.93326252    -0.12000
C518        C  0.94953898  0.54661350  0.95470327     0.03500
C519        C  0.98775717  0.52993418  0.97734880    -0.12500
C520        C  0.98518557  0.49923546  0.97948567     0.18400
C521        C  0.94372164  0.48469668  0.95723830    -0.09500
C522        C  0.90491884  0.50139228  0.93378174    -0.02500
H523        H  0.01980409  0.54107675  0.99436693     0.04900
C524        C  0.02667534  0.48371818  0.00685763     0.20400
H525        H  0.87262785  0.49023783  0.91804056     0.10100
C526        C  0.02861014  0.47437173  0.05670824    -0.15900
C527        C  0.07010368  0.46386440  0.08658878     0.03100
C528        C  0.11029693  0.46311272  0.06667369    -0.11200
C529        C  0.10846129  0.47305247  0.01718473    -0.01200
C530        C  0.06689891  0.48312793  0.98713667    -0.06400
H531        H  0.99808446  0.47583070  0.07262588     0.06100
H532        H  0.13885914  0.47166355  0.00105364     0.09500
Br533      Br  0.93869117  0.44246777  0.95893231    -0.06100
Br534      Br  0.95895804  0.58870633  0.95547757    -0.03000
Br535      Br  0.07088357  0.45163030  0.15477928    -0.00200
Br536      Br  0.06602339  0.49530162  0.91892922    -0.04600
C537        C  0.28216826  0.81202355  0.41490905    -0.12000
C538        C  0.23891350  0.79803389  0.41197894     0.03500
C539        C  0.23549058  0.77422877  0.44435988    -0.12500
C540        C  0.27441397  0.76392569  0.47972856     0.18400
C541        C  0.31762887  0.77700855  0.48132022    -0.09500
C542        C  0.32121472  0.80062874  0.44927348    -0.02500
H543        H  0.20218267  0.76386683  0.44233049     0.04900
C544        C  0.26996007  0.73891926  0.51371492     0.20400
H545        H  0.35496145  0.81056039  0.45230334     0.10100
C546        C  0.28725038  0.71116289  0.50388767    -0.15900
C547        C  0.28268376  0.68675331  0.53396381     0.03100
C548        C  0.26046230  0.68975001  0.57510799    -0.11200
C549        C  0.24507976  0.71790004  0.58648654    -0.01200
C550        C  0.24952036  0.74239269  0.55596144    -0.06400
H551        H  0.30379126  0.70838104  0.47201922     0.06100
H552        H  0.22743578  0.72056560  0.61748731     0.09500
Br553      Br  0.37254385  0.76424003  0.52840589    -0.06100
Br554      Br  0.18291279  0.81077683  0.36666327    -0.03000
Br555      Br  0.30712393  0.64966087  0.51655875    -0.00200
Br556      Br  0.22667096  0.78008709  0.57255367    -0.04600
C557        C  0.25487799  0.54486701  0.78473071    -0.12000
C558        C  0.26649245  0.51473828  0.78000998     0.03500
C559        C  0.26896951  0.49549871  0.82080523    -0.12500
C560        C  0.26061175  0.50570506  0.86688581     0.18400
C561        C  0.25186951  0.53604214  0.87294175    -0.09500
C562        C  0.24917276  0.55547931  0.83192804    -0.02500
H563        H  0.27654852  0.47229429  0.81626767     0.04900
C564        C  0.25792974  0.48390422  0.90671346     0.20400
H565        H  0.24095028  0.57858239  0.83635672     0.10100
C566        C  0.29740838  0.47722283  0.94403317    -0.15900
C567        C  0.29520938  0.45725797  0.98302509     0.03100
C568        C  0.25236227  0.44391172  0.98540649    -0.11200
C569        C  0.21370017  0.44937233  0.94572171    -0.01200
C570        C  0.21630086  0.46907789  0.90668660    -0.06400
H571        H  0.32999351  0.48783330  0.94306726     0.06100
H572        H  0.18060134  0.43927733  0.94596969     0.09500
Br573      Br  0.24174606  0.55139791  0.93595319    -0.06100
Br574      Br  0.28085856  0.49858184  0.71925948    -0.03000
Br575      Br  0.35226987  0.44938809  0.03098082    -0.00200
Br576      Br  0.16182216  0.47583409  0.85460290    -0.04600
C577        C  0.25173396  0.45624648  0.28358087    -0.12000
C578        C  0.24262343  0.44650964  0.32996019     0.03500
C579        C  0.24243811  0.46695398  0.36935548    -0.12500
C580        C  0.25097121  0.49720900  0.36331070     0.18400
C581        C  0.26132251  0.50675930  0.31755735    -0.09500
C582        C  0.26166208  0.48642705  0.27847111    -0.02500
H583        H  0.23427864  0.45937628  0.40439289     0.04900
C584        C  0.24676247  0.51866557  0.40399724     0.20400
H585        H  0.26885411  0.49446165  0.24321431     0.10100
C586        C  0.28644362  0.53261462  0.43233371    -0.15900
C587        C  0.28356649  0.55188197  0.47246277     0.03100
C588        C  0.24019284  0.55778788  0.48447573    -0.11200
C589        C  0.20034618  0.54484456  0.45443744    -0.01200
C590        C  0.20338818  0.52531738  0.41489579    -0.06400
H591        H  0.31991129  0.52802214  0.42382747     0.06100
H592        H  0.16681515  0.54873148  0.46331392     0.09500
Br593      Br  0.27227486  0.54765639  0.30529559    -0.06100
Br594      Br  0.22609894  0.40636540  0.33983671    -0.03000
Br595      Br  0.33994156  0.56950602  0.50924582    -0.00200
Br596      Br  0.14728614  0.50791769  0.37721004    -0.04600
C597        C  0.38732460  0.58999442  0.69723210    -0.12000
C598        C  0.41788998  0.61189108  0.68659729     0.03500
C599        C  0.46565561  0.60952422  0.70687603    -0.12500
C600        C  0.48436487  0.58561777  0.73788715     0.18400
C601        C  0.45402007  0.56368612  0.74838239    -0.09500
C602        C  0.40622918  0.56589927  0.72789590    -0.02500
H603        H  0.48847961  0.62657097  0.69843241     0.04900
C604        C  0.53545626  0.58425717  0.75872474     0.20400
H605        H  0.38358384  0.54894318  0.73701096     0.10100
C606        C  0.55317248  0.58573046  0.81144114    -0.15900
C607        C  0.60117347  0.58608062  0.83187806     0.03100
C608        C  0.63263913  0.58596178  0.79924763    -0.11200
C609        C  0.61469960  0.58412368  0.74657816    -0.01200
C610        C  0.56692499  0.58281816  0.72637933    -0.06400
H611        H  0.52949560  0.58693474  0.83684734     0.06100
H612        H  0.63807466  0.58317283  0.72080106     0.09500
Br613      Br  0.47611895  0.52997243  0.78971855    -0.06100
Br614      Br  0.39720167  0.64501447  0.64311632    -0.03000
Br615      Br  0.62125203  0.58798722  0.90434376    -0.00200
Br616      Br  0.54649712  0.57764699  0.65436877    -0.04600
C617        C  0.91316863  0.63123416  0.80299856    -0.12000
C618        C  0.94200280  0.60748959  0.79503369     0.03500
C619        C  0.98040357  0.61261318  0.77365332    -0.12500
C620        C  0.99099303  0.64116470  0.75940271     0.18400
C621        C  0.96129764  0.66476679  0.76552628    -0.09500
C622        C  0.92270839  0.65967933  0.78700466    -0.02500
H623        H  0.00231397  0.59414914  0.76817369     0.04900
C624        C  0.03384525  0.64549159  0.73956187     0.20400
H625        H  0.90070826  0.67812609  0.79230216     0.10100
C626        C  0.03085921  0.65028815  0.68759510    -0.15900
C627        C  0.07075058  0.65043581  0.66703028     0.03100
C628        C  0.11516108  0.64546866  0.69882488    -0.11200
C629        C  0.11776940  0.64234408  0.75136174    -0.01200
C630        C  0.07794974  0.64229706  0.77158990    -0.06400
H631        H  0.99710158  0.65289112  0.66254549     0.06100
H632        H  0.15097427  0.63887962  0.77703807     0.09500
Br633      Br  0.97322091  0.70440428  0.74699264    -0.06100
Br634      Br  0.92887820  0.56725455  0.80955294    -0.03000
Br635      Br  0.06093368  0.65603715  0.59499436    -0.00200
Br636      Br  0.08535853  0.63711857  0.84344473    -0.04600
C637        C  0.09693513  0.54733165  0.56565508    -0.12000
C638        C  0.09220015  0.51763604  0.54881150     0.03500
C639        C  0.05024137  0.50815238  0.51772935    -0.12500
C640        C  0.01281972  0.52781950  0.50245854     0.18400
C641        C  0.01719902  0.55714365  0.51997597    -0.09500
C642        C  0.05844955  0.56647248  0.55135328    -0.02500
H643        H  0.04672701  0.48527890  0.50540210     0.04900
C644        C  0.96851917  0.51705626  0.47092530     0.20400
H645        H  0.06062076  0.58944934  0.56302899     0.10100
C646        C  0.92903708  0.51709265  0.49173109    -0.15900
C647        C  0.88779895  0.50442509  0.46546187     0.03100
C648        C  0.88560340  0.49093936  0.41799358    -0.11200
C649        C  0.92384899  0.49287756  0.39532819    -0.01200
C650        C  0.96522536  0.50589353  0.42141721    -0.06400
H651        H  0.93082866  0.52596287  0.52945422     0.06100
H652        H  0.92261319  0.48242285  0.35889641     0.09500
Br653      Br  0.96882811  0.58600091  0.49990954    -0.06100
Br654      Br  0.14078701  0.48887452  0.56720065    -0.03000
Br655      Br  0.83606024  0.50406684  0.49735750    -0.00200
Br656      Br  0.01665280  0.50708113  0.38881349    -0.04600
loop_ 
_geom_bond_atom_site_label_1 
_geom_bond_atom_site_label_2 
_geom_bond_distance 
_geom_bond_site_symmetry_2 
_ccdc_geom_bond_type 
O1          Cr19   1.984       .  S
O1            C9   1.260       .  A
O2          Cr19   2.037       .  S
O2            C3   1.272       .  A
C3            O4   1.257       .  A
C3          C557   1.478       .  S
O4          Cr20   1.957       .  S
O5          Cr20   2.054       .  S
O5            C6   1.273       .  A
C6            O7   1.250       .  A
C6          C637   1.492       .  S
O7          Cr21   1.945       .  S
O8          Cr21   2.022       .  S
O8            C9   1.267       .  A
C9          C628   1.505       .  S
O10         Cr19   2.052       .  S
O10          C18   1.277       .  A
O11         Cr19   1.980       .  S
O11          C12   1.263       .  A
C12          O13   1.274       .  A
C12         C597   1.494       .  S
O13         Cr20   2.034       .  S
O14         Cr20   1.969       .  S
O14          C15   1.257       .  A
C15          O16   1.272       .  A
C15         C588   1.485       .  S
O16         Cr21   2.036       .  S
O17         Cr21   1.946       .  S
O17          C18   1.255       .  A
C18         C548   1.481       .  S
Cr19         O22   1.769       .  S
Cr20         O22   1.763       .  S
Cr21         O22   1.758       .  S
O23         Cr41   2.024       .  S
O23          C31   1.267       .  A
O24         Cr41   1.995       .  S
O24          C25   1.264       .  A
C25          O26   1.260       .  A
C25         C488   1.474       .  S
O26         Cr42   1.981       .  S
O27         Cr42   2.002       .  S
O27          C28   1.261       .  A
C28          O29   1.251       .  A
C28         C517   1.470       .  S
O29         Cr43   1.965       .  S
O30         Cr43   1.989       .  S
O30          C31   1.261       .  A
C31         C617   1.489       .  S
O32         Cr41   1.999       .  S
O32          C40   1.264       .  A
O33         Cr41   2.011       .  S
O33          C34   1.268       .  A
C34          O35   1.264       .  A
C34         C608   1.492       .  S
O35         Cr42   1.993       .  S
O36         Cr42   1.983       .  S
O36          C37   1.264       .  A
C37          O38   1.270       .  A
C37         C508   1.474   1_556  S
O38         Cr43   2.000       .  S
O39         Cr43   1.986       .  S
O39          C40   1.259       .  A
C40         C457   1.475       .  S
Cr41         O44   1.776       .  S
Cr42         O44   1.769       .  S
Cr43         O44   1.773       .  S
O45         Cr63   2.016       .  S
O45          C53   1.270       .  A
O46         Cr63   2.011       .  S
O46          C47   1.267       .  A
C47          O48   1.264       .  A
C47         C417   1.489       .  S
O48         Cr64   1.984       .  S
O49         Cr64   1.969       .  S
O49          C50   1.258       .  A
C50          O51   1.263       .  A
C50         C477   1.466       .  S
O51         Cr65   1.992       .  S
O52         Cr65   1.991       .  S
O52          C53   1.264       .  A
C53         C397   1.500       .  S
O54         Cr63   2.006       .  S
O54          C62   1.265       .  A
O55         Cr63   2.032       .  S
O55          C56   1.270       .  A
C56          O57   1.252       .  A
C56         C497   1.495       .  S
O57         Cr64   1.975       .  S
O58         Cr64   2.003       .  S
O58          C59   1.265       .  A
C59          O60   1.261       .  A
C59         C648   1.467       .  S
O60         Cr65   1.984       .  S
O61         Cr65   1.985       .  S
O61          C62   1.259       .  A
C62         C437   1.495       .  S
Cr63         O66   1.771       .  S
Cr64         O66   1.768       .  S
Cr65         O66   1.770       .  S
O67         Cr85   2.062       .  S
O67          C75   1.280       .  A
O68         Cr85   1.966       .  S
O68          C69   1.257       .  A
C69          O70   1.269       .  A
C69         C428   1.483       .  S
O70         Cr86   2.023       .  S
O71         Cr86   1.963       .  S
O71          C72   1.256       .  A
C72          O73   1.272       .  A
C72         C568   1.489   1_554  S
O73         Cr87   2.030       .  S
O74         Cr87   1.945       .  S
O74          C75   1.255       .  A
C75         C377   1.490       .  S
O76         Cr85   1.967       .  S
O76          C84   1.256       .  A
O77         Cr85   2.056       .  S
O77          C78   1.278       .  A
C78          O79   1.256       .  A
C78         C577   1.489       .  S
O79         Cr86   1.950       .  S
O80         Cr86   2.030       .  S
O80          C81   1.269       .  A
C81          O82   1.251       .  A
C81         C528   1.458       .  S
O82         Cr87   1.950       .  S
O83         Cr87   2.019       .  S
O83          C84   1.267       .  A
C84         C448   1.482       .  S
Cr85         O88   1.764       .  S
Cr86         O88   1.764       .  S
Cr87         O88   1.761       .  S
O89        Cr107   2.037       .  S
O89          C97   1.273       .  A
O90        Cr107   1.975       .  S
O90          C91   1.260       .  A
C91          O92   1.269       .  A
C91         C368   1.491       .  S
O92        Cr108   2.022       .  S
O93        Cr108   1.960       .  S
O93          C94   1.258       .  A
C94          O95   1.269       .  A
C94         C297   1.466   1_554  S
O95        Cr109   2.021       .  S
O96        Cr109   1.946       .  S
O96          C97   1.255       .  A
C97         C468   1.482       .  S
O98        Cr107   1.963       .  S
O98         C106   1.256       .  A
O99        Cr107   2.033       .  S
O99         C100   1.272       .  A
C100        O101   1.258       .  A
C100        C328   1.468       .  S
O101       Cr108   1.958       .  S
O102       Cr108   2.036       .  S
O102        C103   1.268       .  A
C103        O104   1.251       .  A
C103        C277   1.469       .  S
O104       Cr109   1.961       .  S
O105       Cr109   2.013       .  S
O105        C106   1.266       .  A
C106        C337   1.478       .  S
Cr107       O110   1.768       .  S
Cr108       O110   1.766       .  S
Cr109       O110   1.763       .  S
O111       Cr129   2.003       .  S
O111        C119   1.265       .  A
O112       Cr129   2.014       .  S
O112        C113   1.269       .  A
C113        O114   1.260       .  A
C113        C357   1.496       .  S
O114       Cr130   1.979       .  S
O115       Cr130   1.988       .  S
O115        C116   1.265       .  A
C116        O117   1.265       .  A
C116        C237   1.466       .  S
O117       Cr131   1.986       .  S
O118       Cr131   1.990       .  S
O118        C119   1.262       .  A
C119        C537   1.493       .  S
O120       Cr129   2.013       .  S
O120        C128   1.268       .  A
O121       Cr129   1.995       .  S
O121        C122   1.263       .  A
C122        O123   1.262       .  A
C122        C268   1.483       .  S
O123       Cr130   1.987       .  S
O124       Cr130   1.998       .  S
O124        C125   1.260       .  A
C125        O126   1.258       .  A
C125        C217   1.463       .  S
O126       Cr131   1.980       .  S
O127       Cr131   1.979       .  S
O127        C128   1.259       .  A
C128        C348   1.494       .  S
Cr129       O132   1.770       .  S
Cr130       O132   1.766       .  S
Cr131       O132   1.768       .  S
O133       Cr151   1.983       .  S
O133        C141   1.258       .  A
O134       Cr151   2.042       .  S
O134        C135   1.271       .  A
C135        O136   1.254       .  A
C135        C248   1.479       .  S
O136       Cr152   1.944       .  S
O137       Cr152   2.041       .  S
O137        C138   1.273       .  A
C138        O139   1.253       .  A
C138        C288   1.488       .  S
O139       Cr153   1.954       .  S
O140       Cr153   2.016       .  S
O140        C141   1.266       .  A
C141        C177   1.491       .  S
O142       Cr151   2.055       .  S
O142        C150   1.279       .  A
O143       Cr151   1.972       .  S
O143        C144   1.261       .  A
C144        O145   1.273       .  A
C144        C197   1.489       .  S
O145       Cr152   2.037       .  S
O146       Cr152   1.968       .  S
O146        C147   1.258       .  A
C147        O148   1.268       .  A
C147        C257   1.484   1_556  S
O148       Cr153   2.019       .  S
O149       Cr153   1.952       .  S
O149        C150   1.258       .  A
C150        C388   1.489       .  S
Cr151       O154   1.771       .  S
Cr152       O154   1.765       .  S
Cr153       O154   1.763       .  S
O155       Cr173   1.976       .  S
O155        C163   1.259       .  A
O156       Cr173   2.020       .  S
O156        C157   1.268       .  A
C157        O158   1.256       .  A
C157        C308   1.468       .  S
O158       Cr174   1.964       .  S
O159       Cr174   2.037       .  S
O159        C160   1.268       .  A
C160        O161   1.252       .  A
C160        C228   1.487       .  S
O161       Cr175   1.947       .  S
O162       Cr175   2.019       .  S
O162        C163   1.267       .  A
C163        C188   1.502       .  S
O164       Cr173   2.042       .  S
O164        C172   1.274       .  A
O165       Cr173   1.977       .  S
O165        C166   1.265       .  A
C166        O167   1.273       .  A
C166        C208   1.490       .  S
O167       Cr174   2.028       .  S
O168       Cr174   1.965       .  S
O168        C169   1.260       .  A
C169        O170   1.268       .  A
C169        C317   1.492       .  S
O170       Cr175   2.024       .  S
O171       Cr175   1.959       .  S
O171        C172   1.257       .  A
C172        C408   1.482       .  S
Cr173       O176   1.769       .  S
Cr174       O176   1.763       .  S
Cr175       O176   1.759       .  S
C177        C178   1.417       .  A
C177        C182   1.407       .  A
C178        C179   1.402       .  A
C178       Br194   1.919       .  S
C179        C180   1.401       .  A
C179        H183   1.084       .  S
C180        C184   1.489       .  S
C180        C181   1.410       .  A
C181        C182   1.404       .  A
C181       Br193   1.918       .  S
C182        H185   1.083       .  S
C184        C186   1.404       .  A
C184        C190   1.406       .  A
C186        C187   1.408       .  A
C186        H191   1.083       .  S
C187        C188   1.420       .  A
C187       Br195   1.920       .  S
C188        C189   1.412       .  A
C189        C190   1.399       .  A
C189        H192   1.083       .  S
C190       Br196   1.920       .  S
C197        C198   1.417       .  A
C197        C202   1.406       .  A
C198        C199   1.401       .  A
C198       Br214   1.922       .  S
C199        C200   1.400       .  A
C199        H203   1.084       .  S
C200        C204   1.487   1_455  S
C200        C201   1.410       .  A
C201        C202   1.407       .  A
C201       Br213   1.917       .  S
C202        H205   1.083       .  S
C204        C206   1.404       .  A
C204        C210   1.407       .  A
C206        C207   1.406       .  A
C206        H211   1.083       .  S
C207        C208   1.414       .  A
C207       Br215   1.920       .  S
C208        C209   1.407       .  A
C209        C210   1.401       .  A
C209        H212   1.083       .  S
C210       Br216   1.918       .  S
C217        C218   1.405       .  A
C217        C222   1.402       .  A
C218        C219   1.390   1_565  A
C218       Br234   1.917       .  S
C219        C220   1.402       .  A
C219        H223   1.083       .  S
C220        C224   1.481       .  S
C220        C221   1.413       .  A
C221        C222   1.403   1_545  A
C221       Br233   1.919       .  S
C222        H225   1.083       .  S
C224        C226   1.406       .  A
C224        C230   1.406       .  A
C226        C227   1.404       .  A
C226        H231   1.083   1_545  S
C227        C228   1.416       .  A
C227       Br235   1.921   1_545  S
C228        C229   1.410       .  A
C229        C230   1.390       .  A
C229        H232   1.083       .  S
C230       Br236   1.923       .  S
C237        C238   1.408       .  A
C237        C242   1.403       .  A
C238        C239   1.398       .  A
C238       Br254   1.920       .  S
C239        C240   1.403       .  A
C239        H243   1.084       .  S
C240        C244   1.472       .  S
C240        C241   1.403       .  A
C241        C242   1.396       .  A
C241       Br253   1.917       .  S
C242        H245   1.083       .  S
C244        C246   1.407   1_565  A
C244        C250   1.398       .  A
C246        C247   1.405       .  A
C246        H251   1.084       .  S
C247        C248   1.410       .  A
C247       Br255   1.918       .  S
C248        C249   1.409       .  A
C249        C250   1.391   1_545  A
C249        H252   1.084   1_545  S
C250       Br256   1.919       .  S
C257        C258   1.414       .  A
C257        C262   1.409       .  A
C258        C259   1.399       .  A
C258       Br274   1.921   1_554  S
C259        C260   1.401       .  A
C259        H263   1.084       .  S
C260        C264   1.476   1_545  S
C260        C261   1.404       .  A
C261        C262   1.398       .  A
C261       Br273   1.919       .  S
C262        H265   1.084       .  S
C264        C266   1.404       .  A
C264        C270   1.402   1_565  A
C266        C267   1.403       .  A
C266        H271   1.083       .  S
C267        C268   1.413       .  A
C267       Br275   1.919       .  S
C268        C269   1.409       .  A
C269        C270   1.395   1_565  A
C269        H272   1.083       .  S
C270       Br276   1.919       .  S
C277        C278   1.404       .  A
C277        C282   1.404       .  A
C278        C279   1.400       .  A
C278       Br294   1.917       .  S
C279        C280   1.408   1_554  A
C279        H283   1.083       .  S
C280        C284   1.488   1_565  S
C280        C281   1.412       .  A
C281        C282   1.399   1_556  A
C281       Br293   1.922       .  S
C282        H285   1.083   1_554  S
C284        C286   1.400       .  A
C284        C290   1.412   1_545  A
C286        C287   1.396       .  A
C286        H291   1.084       .  S
C287        C288   1.419       .  A
C287       Br295   1.923       .  S
C288        C289   1.406       .  A
C289        C290   1.402   1_545  A
C289        H292   1.084   1_545  S
C290       Br296   1.920       .  S
C297        C298   1.405       .  A
C297        C302   1.404       .  A
C298        C299   1.400       .  A
C298       Br314   1.918       .  S
C299        C300   1.406       .  A
C299        H303   1.083       .  S
C300        C304   1.474   1_565  S
C300        C301   1.406   1_565  A
C301        C302   1.393   1_545  A
C301       Br313   1.921       .  S
C302        H305   1.084   1_556  S
C304        C306   1.402       .  A
C304        C310   1.409       .  A
C306        C307   1.397       .  A
C306        H311   1.084       .  S
C307        C308   1.409       .  A
C307       Br315   1.920       .  S
C308        C309   1.402       .  A
C309        C310   1.397       .  A
C309        H312   1.084       .  S
C310       Br316   1.920       .  S
C317        C318   1.419       .  A
C317        C322   1.409       .  A
C318        C319   1.401       .  A
C318       Br334   1.923       .  S
C319        C320   1.403       .  A
C319        H323   1.083       .  S
C320        C324   1.487   1_545  S
C320        C321   1.409       .  A
C321        C322   1.398       .  A
C321       Br333   1.921   1_545  S
C322        H325   1.082       .  S
C324        C326   1.403       .  A
C324        C330   1.415       .  A
C326        C327   1.397       .  A
C326        H331   1.083   1_565  S
C327        C328   1.406       .  A
C327       Br335   1.918       .  S
C328        C329   1.401       .  A
C329        C330   1.402       .  A
C329        H332   1.084       .  S
C330       Br336   1.921       .  S
C337        C338   1.412       .  A
C337        C342   1.405       .  A
C338        C339   1.399       .  A
C338       Br354   1.920       .  S
C339        C340   1.401       .  A
C339        H343   1.084       .  S
C340        C344   1.479       .  S
C340        C341   1.409       .  A
C341        C342   1.400       .  A
C341       Br353   1.920       .  S
C342        H345   1.084       .  S
C344        C346   1.400       .  A
C344        C350   1.404       .  A
C346        C347   1.401       .  A
C346        H351   1.084       .  S
C347        C348   1.421       .  A
C347       Br355   1.923       .  S
C348        C349   1.411       .  A
C349        C350   1.399       .  A
C349        H352   1.083       .  S
C350       Br356   1.919       .  S
C357        C358   1.420       .  A
C357        C362   1.411       .  A
C358        C359   1.401       .  A
C358       Br374   1.919       .  S
C359        C360   1.399       .  A
C359        H363   1.082       .  S
C360        C364   1.481   1_455  S
C360        C361   1.404       .  A
C361        C362   1.401       .  A
C361       Br373   1.918       .  S
C362        H365   1.082       .  S
C364        C366   1.401       .  A
C364        C370   1.405       .  A
C366        C367   1.401       .  A
C366        H371   1.084       .  S
C367        C368   1.416       .  A
C367       Br375   1.921       .  S
C368        C369   1.410       .  A
C369        C370   1.401       .  A
C369        H372   1.084       .  S
C370       Br376   1.919       .  S
C377        C378   1.412       .  A
C377        C382   1.410       .  A
C378        C379   1.408       .  A
C378       Br394   1.917       .  S
C379        C380   1.407       .  A
C379        H383   1.083       .  S
C380        C384   1.488   1_554  S
C380        C381   1.405   1_554  A
C381        C382   1.400   1_556  A
C381       Br393   1.919       .  S
C382        H385   1.084       .  S
C384        C386   1.409       .  A
C384        C390   1.404       .  A
C386        C387   1.411       .  A
C386        H391   1.083       .  S
C387        C388   1.412       .  A
C387       Br395   1.918       .  S
C388        C389   1.408       .  A
C389        C390   1.398       .  A
C389        H392   1.084       .  S
C390       Br396   1.919   1_556  S
C397        C398   1.417       .  A
C397        C402   1.412       .  A
C398        C399   1.408       .  A
C398       Br414   1.916       .  S
C399        C400   1.406       .  A
C399        H403   1.085       .  S
C400        C404   1.491       .  S
C400        C401   1.406       .  A
C401        C402   1.399       .  A
C401       Br413   1.920       .  S
C402        H405   1.084       .  S
C404        C406   1.403       .  A
C404        C410   1.412       .  A
C406        C407   1.401       .  A
C406        H411   1.083       .  S
C407        C408   1.412       .  A
C407       Br415   1.922       .  S
C408        C409   1.404       .  A
C409        C410   1.406       .  A
C409        H412   1.083       .  S
C410       Br416   1.918       .  S
C417        C418   1.419       .  A
C417        C422   1.408       .  A
C418        C419   1.400       .  A
C418       Br434   1.922       .  S
C419        C420   1.400       .  A
C419        H423   1.083       .  S
C420        C424   1.479       .  S
C420        C421   1.406       .  A
C421        C422   1.400       .  A
C421       Br433   1.918       .  S
C422        H425   1.082       .  S
C424        C426   1.399       .  A
C424        C430   1.408       .  A
C426        C427   1.399       .  A
C426        H431   1.083       .  S
C427        C428   1.417       .  A
C427       Br435   1.923       .  S
C428        C429   1.405       .  A
C429        C430   1.401       .  A
C429        H432   1.083       .  S
C430       Br436   1.918       .  S
C437        C438   1.419       .  A
C437        C442   1.411       .  A
C438        C439   1.402   1_655  A
C438       Br454   1.920       .  S
C439        C440   1.401   1_455  A
C439        H443   1.084       .  S
C440        C444   1.483   1_655  S
C440        C441   1.405       .  A
C441        C442   1.401       .  A
C441       Br453   1.918       .  S
C442        H445   1.083       .  S
C444        C446   1.402       .  A
C444        C450   1.410       .  A
C446        C447   1.401       .  A
C446        H451   1.084       .  S
C447        C448   1.413       .  A
C447       Br455   1.920       .  S
C448        C449   1.405       .  A
C449        C450   1.402       .  A
C449        H452   1.084       .  S
C450       Br456   1.920   1_455  S
C457        C458   1.409       .  A
C457        C462   1.405       .  A
C458        C459   1.401       .  A
C458       Br474   1.918       .  S
C459        C460   1.405       .  A
C459        H463   1.084       .  S
C460        C464   1.480       .  S
C460        C461   1.407       .  A
C461        C462   1.397       .  A
C461       Br473   1.920       .  S
C462        H465   1.084       .  S
C464        C466   1.407   1_556  A
C464        C470   1.404       .  A
C466        C467   1.404       .  A
C466        H471   1.083       .  S
C467        C468   1.410       .  A
C467       Br475   1.919       .  S
C468        C469   1.409       .  A
C469        C470   1.394   1_554  A
C469        H472   1.084   1_554  S
C470       Br476   1.920       .  S
C477        C478   1.410       .  A
C477        C482   1.401       .  A
C478        C479   1.396       .  A
C478       Br494   1.921       .  S
C479        C480   1.402       .  A
C479        H483   1.083       .  S
C480        C484   1.480       .  S
C480        C481   1.413       .  A
C481        C482   1.398       .  A
C481       Br493   1.921       .  S
C482        H485   1.083       .  S
C484        C486   1.397       .  A
C484        C490   1.415       .  A
C486        C487   1.391       .  A
C486        H491   1.084       .  S
C487        C488   1.413       .  A
C487       Br495   1.917       .  S
C488        C489   1.402       .  A
C489        C490   1.401       .  A
C489        H492   1.084       .  S
C490       Br496   1.919       .  S
C497        C498   1.427       .  A
C497        C502   1.407       .  A
C498        C499   1.396       .  A
C498       Br514   1.927       .  S
C499        C500   1.392       .  A
C499        H503   1.084       .  S
C500        C504   1.482       .  S
C500        C501   1.411       .  A
C501        C502   1.408       .  A
C501       Br513   1.918       .  S
C502        H505   1.083       .  S
C504        C506   1.402       .  A
C504        C510   1.407       .  A
C506        C507   1.403       .  A
C506        H511   1.083       .  S
C507        C508   1.411       .  A
C507       Br515   1.918       .  S
C508        C509   1.405       .  A
C509        C510   1.400       .  A
C509        H512   1.084   1_554  S
C510       Br516   1.919       .  S
C517        C518   1.417       .  A
C517        C522   1.405       .  A
C518        C519   1.384       .  A
C518       Br534   1.923       .  S
C519        C520   1.392       .  A
C519        H523   1.085   1_655  S
C520        C524   1.465   1_656  S
C520        C521   1.407       .  A
C521        C522   1.403       .  A
C521       Br533   1.917       .  S
C522        H525   1.083       .  S
C524        C526   1.401       .  A
C524        C530   1.405   1_554  A
C526        C527   1.396       .  A
C526        H531   1.083   1_455  S
C527        C528   1.408       .  A
C527       Br535   1.919       .  S
C528        C529   1.401       .  A
C529        C530   1.393   1_554  A
C529        H532   1.083       .  S
C530       Br536   1.919       .  S
C537        C538   1.416       .  A
C537        C542   1.411       .  A
C538        C539   1.407       .  A
C538       Br554   1.920       .  S
C539        C540   1.405       .  A
C539        H543   1.083       .  S
C540        C544   1.483       .  S
C540        C541   1.403       .  A
C541        C542   1.395       .  A
C541       Br553   1.920       .  S
C542        H545   1.083       .  S
C544        C546   1.399       .  A
C544        C550   1.410       .  A
C546        C547   1.397       .  A
C546        H551   1.085       .  S
C547        C548   1.414       .  A
C547       Br555   1.920       .  S
C548        C549   1.405       .  A
C549        C550   1.406       .  A
C549        H552   1.085       .  S
C550       Br556   1.917       .  S
C557        C558   1.415       .  A
C557        C562   1.404       .  A
C558        C559   1.395       .  A
C558       Br574   1.922       .  S
C559        C560   1.397       .  A
C559        H563   1.084       .  S
C560        C564   1.476       .  S
C560        C561   1.410       .  A
C561        C562   1.404       .  A
C561       Br573   1.917       .  S
C562        H565   1.083       .  S
C564        C566   1.399       .  A
C564        C570   1.404       .  A
C566        C567   1.401       .  A
C566        H571   1.084       .  S
C567        C568   1.420       .  A
C567       Br575   1.923   1_556  S
C568        C569   1.408       .  A
C569        C570   1.397       .  A
C569        H572   1.083       .  S
C570       Br576   1.918       .  S
C577        C578   1.409       .  A
C577        C582   1.410       .  A
C578        C579   1.407       .  A
C578       Br594   1.916       .  S
C579        C580   1.408       .  A
C579        H583   1.083       .  S
C580        C584   1.488       .  S
C580        C581   1.406       .  A
C581        C582   1.398       .  A
C581       Br593   1.920       .  S
C582        H585   1.084       .  S
C584        C586   1.405       .  A
C584        C590   1.408       .  A
C586        C587   1.404       .  A
C586        H591   1.083       .  S
C587        C588   1.414       .  A
C587       Br595   1.920       .  S
C588        C589   1.406       .  A
C589        C590   1.400       .  A
C589        H592   1.083       .  S
C590       Br596   1.918       .  S
C597        C598   1.415       .  A
C597        C602   1.408       .  A
C598        C599   1.404       .  A
C598       Br614   1.920       .  S
C599        C600   1.405       .  A
C599        H603   1.084       .  S
C600        C604   1.495       .  S
C600        C601   1.410       .  A
C601        C602   1.405       .  A
C601       Br613   1.918       .  S
C602        H605   1.084       .  S
C604        C606   1.407       .  A
C604        C610   1.409       .  A
C606        C607   1.407       .  A
C606        H611   1.083       .  S
C607        C608   1.414       .  A
C607       Br615   1.919       .  S
C608        C609   1.408       .  A
C609        C610   1.401       .  A
C609        H612   1.083       .  S
C610       Br616   1.920       .  S
C617        C618   1.413       .  A
C617        C622   1.407       .  A
C618        C619   1.402       .  A
C618       Br634   1.921       .  S
C619        C620   1.404       .  A
C619        H623   1.084   1_655  S
C620        C624   1.494   1_655  S
C620        C621   1.411       .  A
C621        C622   1.408       .  A
C621       Br633   1.917       .  S
C622        H625   1.083       .  S
C624        C626   1.404       .  A
C624        C630   1.407       .  A
C626        C627   1.409       .  A
C626        H631   1.083   1_455  S
C627        C628   1.422       .  A
C627       Br635   1.920       .  S
C628        C629   1.411       .  A
C629        C630   1.402       .  A
C629        H632   1.083       .  S
C630       Br636   1.919       .  S
C637        C638   1.413       .  A
C637        C642   1.413       .  A
C638        C639   1.406       .  A
C638       Br654   1.918       .  S
C639        C640   1.407       .  A
C639        H643   1.083       .  S
C640        C644   1.482   1_455  S
C640        C641   1.403       .  A
C641        C642   1.392       .  A
C641       Br653   1.922   1_455  S
C642        H645   1.082       .  S
C644        C646   1.402       .  A
C644        C650   1.410       .  A
C646        C647   1.395       .  A
C646        H651   1.084       .  S
C647        C648   1.406       .  A
C647       Br655   1.913       .  S
C648        C649   1.402       .  A
C649        C650   1.403       .  A
C649        H652   1.083       .  S
C650       Br656   1.917   1_655  S
