geometry optimzed in LAMMPS
_audit_creation_date              2020-12-01 
_audit_creation_method            'lammps2cif' 
_symmetry_space_group_name_H-M    'P1' 
_symmetry_Int_Tables_number       1 
_symmetry_cell_setting            triclinic 
loop_ 
_symmetry_equiv_pos_as_xyz 
  x,y,z 
_cell_length_a                    43.25951271 
_cell_length_b                    32.30094760822758 
_cell_length_c                    44.16289241174129 
_cell_angle_alpha                 90.33236275869098 
_cell_angle_beta                  107.82638176475612 
_cell_angle_gamma                 91.67649908351329 
loop_ 
_atom_site_label 
_atom_site_type_symbol 
_atom_site_fract_x 
_atom_site_fract_y 
_atom_site_fract_z 
_atom_site_charge 
O1          O  0.35162828  0.88000342  0.42475607    -0.86300
O2          O  0.38993151  0.94701930  0.41817284    -0.83400
C3          C  0.38344824  0.98474452  0.41558208     0.97100
O4          O  0.37594447  0.00393236  0.43730486    -0.83400
O5          O  0.33089029  0.99314294  0.46957554    -0.86000
C6          C  0.31631366  0.97832614  0.48774967     1.01700
O7          O  0.32837754  0.94958582  0.50524472    -0.78800
O8          O  0.31755050  0.90187172  0.45020494    -0.79000
C9          C  0.32282667  0.88860675  0.42519299     1.01600
O10         O  0.40834753  0.85814940  0.48195650    -0.86300
O11         O  0.43997487  0.93152705  0.47500424    -0.83400
C12         C  0.44784839  0.96664145  0.48913211     0.97200
O13         O  0.42670306  0.98976263  0.49356878    -0.83400
O14         O  0.38429546  0.97342334  0.02945533    -0.86000
C15         C  0.38739731  0.94104631  0.04686873     1.01600
O16         O  0.38203795  0.90476927  0.03445125    -0.78800
O17         O  0.36117687  0.84362461  0.98371264    -0.79000
C18         C  0.38715255  0.83443094  0.48711669     1.01600
Cr19       Cr  0.39576881  0.90576503  0.45197950     1.93700
Cr20       Cr  0.37922139  0.98681474  0.48204001     1.93200
Cr21       Cr  0.34966369  0.90413108  0.49205963     1.39100
O22         O  0.37587094  0.93262915  0.47526771    -1.24100
O23         O  0.43179503  0.63012740  0.06084731    -0.86300
O24         O  0.44818253  0.55583300  0.04429515    -0.83400
C25         C  0.44726107  0.52283405  0.02941674     0.97100
O26         O  0.42092122  0.50181339  0.02013526    -0.83400
O27         O  0.38992179  0.49542733  0.06799805    -0.86000
C28         C  0.37466448  0.50740855  0.08665137     1.01700
O29         O  0.35924274  0.54049764  0.08133110    -0.78800
O30         O  0.40965943  0.59911248  0.09262312    -0.79000
C31         C  0.43444408  0.61700322  0.08824841     1.01600
O32         O  0.38478464  0.63483430  0.99930907    -0.86300
O33         O  0.40081745  0.57194049  0.47694827    -0.83400
C34         C  0.37638835  0.55022131  0.46123873     0.97200
O35         O  0.35827766  0.53283663  0.47552035    -0.83400
O36         O  0.33030944  0.51411285  0.02076999    -0.86000
C37         C  0.31051325  0.54279993  0.01854044     1.01600
O38         O  0.32092814  0.58002081  0.02695790    -0.78800
O39         O  0.36950985  0.64876582  0.04082914    -0.79000
C40         C  0.37617126  0.66076437  0.01606861     1.01600
Cr41       Cr  0.41555896  0.59432317  0.02194070     1.93700
Cr42       Cr  0.37677788  0.51353453  0.02253944     1.93200
Cr43       Cr  0.36601208  0.59111036  0.05840541     1.39100
O44         O  0.38527205  0.56646725  0.03356795    -1.24100
O45         O  0.17571798  0.88519796  0.32019464    -0.86300
O46         O  0.14942472  0.95890172  0.32827214    -0.83400
C47         C  0.14287472  0.99647607  0.32378203     0.97100
O48         O  0.13714856  0.01164737  0.29635169    -0.83400
O49         O  0.18945635  0.00673288  0.27174544    -0.86000
C50         C  0.20851464  0.99123535  0.25858692     1.01700
O51         O  0.20240638  0.95645844  0.24502272    -0.78800
O52         O  0.20993907  0.90636260  0.29487156    -0.79000
C53         C  0.20466603  0.89237068  0.31936634     1.01600
O54         O  0.11561394  0.86409188  0.26847075    -0.86300
O55         O  0.09027431  0.94252952  0.27924682    -0.83400
C56         C  0.07898213  0.96696547  0.25605919     0.97200
O57         O  0.09604936  0.97693737  0.23860979    -0.83400
O58         O  0.14532849  0.97787157  0.21128336    -0.86000
C59         C  0.14405823  0.94466167  0.19525904     1.01600
O60         O  0.14793704  0.90995142  0.20879175    -0.78800
O61         O  0.16083852  0.85229967  0.25812917    -0.79000
C62         C  0.13411260  0.83945246  0.26059388     1.01600
Cr63       Cr  0.13386943  0.91403148  0.29627164     1.93700
Cr64       Cr  0.14283514  0.98896828  0.25566385     1.93200
Cr65       Cr  0.17764651  0.90840774  0.25294642     1.39100
O66         O  0.15106206  0.93708358  0.26834260    -1.24100
O67         O  0.06888579  0.63039148  0.20706573    -0.86300
O68         O  0.05036538  0.56179748  0.23182641    -0.83400
C69         C  0.05097124  0.52802026  0.24551277     0.97100
O70         O  0.07545097  0.50597809  0.25059374    -0.83400
O71         O  0.09629598  0.49317465  0.19633618    -0.86000
C72         C  0.10963621  0.50175390  0.17515667     1.01700
O73         O  0.12799834  0.53346587  0.17805431    -0.78800
O74         O  0.08429116  0.59581722  0.17183080    -0.79000
C75         C  0.06294411  0.61647866  0.17900016     1.01600
O76         O  0.12440114  0.63981185  0.26315273    -0.86300
O77         O  0.10183860  0.57328300  0.29011189    -0.83400
C78         C  0.12344717  0.54802071  0.30348014     0.97200
O79         O  0.13815924  0.52865732  0.28715860    -0.83400
O80         O  0.16050668  0.50974120  0.23608669    -0.86000
C81         C  0.18265995  0.53583847  0.23581427     1.01600
O82         O  0.17547556  0.57356827  0.22852847    -0.78800
O83         O  0.13326338  0.64627827  0.21734308    -0.79000
C84         C  0.13199258  0.66225149  0.24325741     1.01600
Cr85       Cr  0.08859032  0.59881899  0.24683099     1.93700
Cr86       Cr  0.11703604  0.51370406  0.24128621     1.93200
Cr87       Cr  0.12930639  0.58648515  0.20150218     1.44700
O88         O  0.11222829  0.56647972  0.23041429    -1.24100
O89         O  0.40060714  0.39677211  0.33884198    -0.86300
O90         O  0.35276202  0.45437636  0.32781021    -0.83400
C91         C  0.36869952  0.48798321  0.33599523     0.97100
O92         O  0.38627453  0.50182120  0.31978322    -0.83400
O93         O  0.42238780  0.49998097  0.27691767    -0.86000
C94         C  0.44816608  0.48091092  0.28902177     1.01700
O95         O  0.44673961  0.44396615  0.29680551    -0.78800
O96         O  0.42473357  0.36859601  0.30795479    -0.79000
C97         C  0.42566487  0.38035876  0.33539570     1.01600
O98         O  0.36145927  0.34943334  0.28304841    -0.86300
O99         O  0.31602126  0.41836972  0.26958105    -0.83400
C100        C  0.30797927  0.45604349  0.26316799     0.97200
O101        O  0.32960513  0.48445452  0.26815496    -0.83400
O102        O  0.36591026  0.47558473  0.22706923    -0.86000
C103        C  0.38553597  0.45945971  0.21458457     1.01600
O104        O  0.40817553  0.43778074  0.23113199    -0.78800
O105        O  0.38133002  0.36523697  0.24462774    -0.79000
C106        C  0.37001003  0.33839137  0.25914200     1.01600
Cr107      Cr  0.35915283  0.40590462  0.30288331     1.93700
Cr108      Cr  0.37658691  0.48614734  0.27376073     1.93200
Cr109      Cr  0.41268189  0.40620483  0.27084526     1.39100
O110        O  0.38212676  0.43266350  0.28180033    -1.24100
O111        O  0.33918400  0.13198355  0.19442316    -0.86300
O112        O  0.31983346  0.05783656  0.20960355    -0.83400
C113        C  0.31858556  0.02354852  0.22200784     0.97100
O114        O  0.34420713  0.00381597  0.23352477    -0.83400
O115        O  0.37766228  0.99740956  0.18714512    -0.86000
C116        C  0.39416782  0.00932518  0.16926825     1.01700
O117        O  0.40963403  0.04371900  0.17486286    -0.78800
O118        O  0.36181173  0.10102441  0.16344307    -0.79000
C119        C  0.33755678  0.11909412  0.16696866     1.01600
O120        O  0.38523526  0.13945578  0.25676450    -0.86300
O121        O  0.35986649  0.06831410  0.27503922    -0.83400
C122        C  0.38286352  0.04720234  0.29187410     0.97200
O123        O  0.40248685  0.03146894  0.27915496    -0.83400
O124        O  0.43643533  0.01945353  0.23596422    -0.86000
C125        C  0.45718798  0.04864057  0.23824327     1.01600
O126        O  0.44818860  0.08545906  0.23020038    -0.78800
O127        O  0.40204343  0.15290191  0.21596389    -0.79000
C128        C  0.39517132  0.16539300  0.24052516     1.01600
Cr129      Cr  0.35345100  0.09723121  0.23332695     1.93700
Cr130      Cr  0.38960211  0.01708581  0.23278339     1.93200
Cr131      Cr  0.40411746  0.09465388  0.19822044     1.39100
O132        O  0.38321151  0.06981373  0.22217407    -1.24100
O133        O  0.21213468  0.08605568  0.04283537    -0.86300
O134        O  0.19356545  0.03843900  0.98873195    -0.83400
C135        C  0.19670280  0.00350020  0.00127696     0.97100
O136        O  0.17718683  0.98951436  0.01507414    -0.83400
O137        O  0.12856527  0.99030008  0.04446258    -0.86000
C138        C  0.14157728  0.00250273  0.07300360     1.01700
O139        O  0.15444032  0.03826126  0.07881378    -0.78800
O140        O  0.18380053  0.11221404  0.07140581    -0.79000
C141        C  0.21123003  0.10308860  0.06831637     1.01600
O142        O  0.16723376  0.14554467  0.01247312    -0.86300
O143        O  0.14436947  0.08997948  0.45792036    -0.83400
C144        C  0.13556709  0.05570602  0.44318152     0.97200
O145        O  0.13439904  0.02283727  0.45855233    -0.83400
O146        O  0.08975213  0.03403226  0.98982485    -0.86000
C147        C  0.07634732  0.04000065  0.01074268     1.01600
O148        O  0.09217987  0.05943554  0.03636637    -0.78800
O149        O  0.12258266  0.13588422  0.02541309    -0.79000
C150        C  0.14234628  0.15961801  0.01727537     1.01600
Cr151      Cr  0.17698990  0.08867246  0.00214369     1.93700
Cr152      Cr  0.13352350  0.01310156  0.00323516     1.93200
Cr153      Cr  0.13872047  0.08523507  0.05033570     1.39100
O154        O  0.14957343  0.06247743  0.01860026    -1.24100
O155        O  0.08268695  0.37689055  0.43293160    -0.86300
O156        O  0.11004845  0.44793445  0.42317187    -0.83400
C157        C  0.11876245  0.48524572  0.42513606     0.97100
O158        O  0.12358000  0.50467045  0.45127704    -0.83400
O159        O  0.06970742  0.49579830  0.47625478    -0.86000
C160        C  0.05155970  0.47914319  0.49073042     1.01700
O161        O  0.06204992  0.45092666  0.50989247    -0.78800
O162        O  0.05210003  0.39754024  0.46126494    -0.79000
C163        C  0.05461701  0.38459321  0.43526156     1.01600
O164        O  0.14397554  0.35949931  0.48451900    -0.86300
O165        O  0.17089030  0.43769172  0.47383029    -0.83400
C166        C  0.18239975  0.46489697  0.49610845     0.97200
O167        O  0.16452229  0.48023631  0.51074941    -0.83400
O168        O  0.11497409  0.47618110  0.03774908    -0.86000
C169        C  0.11834665  0.44494734  0.05594171     1.01600
O170        O  0.11759581  0.40858411  0.04455426    -0.78800
O171        O  0.10076823  0.34490987  0.99668004    -0.79000
C172        C  0.12512016  0.33492984  0.49303490     1.01600
Cr173      Cr  0.12620472  0.40714633  0.45632305     1.93700
Cr174      Cr  0.11757388  0.48582234  0.49332449     1.93200
Cr175      Cr  0.08545089  0.40376778  0.50224485     1.39100
O176        O  0.11072279  0.43195040  0.48424979    -1.24100
C177        C  0.13760517  0.20436127  0.01312218    -0.07100
C178        C  0.10807315  0.21941792  0.49455230    -0.18200
C179        C  0.10379771  0.26105498  0.48667572     0.10100
C180        C  0.13181320  0.28819290  0.99535149    -0.07000
C181        C  0.16028408  0.27510026  0.01755824    -0.18300
C182        C  0.16333219  0.23358499  0.02672482     0.10100
S183        S  0.06406635  0.27471399  0.46190347    -0.33200
S184        S  0.19995420  0.21994382  0.05705521    -0.33200
H185        H  0.18381866  0.19284581  0.07243091     0.28100
H186        H  0.07670800  0.29902994  0.44198559     0.28100
H187        H  0.08773744  0.19747706  0.48601695     0.18700
H188        H  0.17948999  0.29757190  0.02895463     0.18700
C189        C  0.30603094  0.12184352  0.14042144    -0.07100
C190        C  0.27722689  0.12881524  0.14817846    -0.18200
C191        C  0.24618046  0.12417827  0.12555653     0.10100
C192        C  0.24312859  0.11268242  0.09370475    -0.07000
C193        C  0.27211137  0.10906429  0.08555282    -0.18300
C194        C  0.30302129  0.11356256  0.10818061     0.10100
S195        S  0.21172894  0.13141854  0.13959026    -0.33200
S196        S  0.33775485  0.10999248  0.09414940    -0.33200
H197        H  0.34580152  0.07096867  0.10782345     0.28100
H198        H  0.19758750  0.09213262  0.12882820     0.28100
H199        H  0.27864365  0.13573516  0.17260885     0.18700
H200        H  0.27088928  0.10196529  0.06120218     0.18700
C201        C  0.45736753  0.37837605  0.36182013    -0.07100
C202        C  0.48130136  0.35056051  0.35932636    -0.18200
C203        C  0.01574049  0.35318393  0.38203261     0.10100
C204        C  0.02309892  0.38081843  0.40841295    -0.07000
C205        C  0.99811321  0.40633039  0.41097220    -0.18300
C206        C  0.46656940  0.40806171  0.38684851     0.10100
S207        S  0.04601515  0.32186103  0.37395079    -0.33200
S208        S  0.43990991  0.44692712  0.39268348    -0.33200
H209        H  0.43596754  0.46377253  0.36250096     0.28100
H210        H  0.06760758  0.35574220  0.37526054     0.28100
H211        H  0.47531793  0.32810438  0.33992000     0.18700
H212        H  0.00339936  0.43016146  0.42931358     0.18700
C213        C  0.37339923  0.29353627  0.25261224    -0.07100
C214        C  0.38053693  0.26656688  0.27857795    -0.18200
C215        C  0.39016442  0.22576733  0.27612949     0.10100
C216        C  0.39228581  0.21055834  0.24666138    -0.07000
C217        C  0.38552750  0.23769533  0.22076882    -0.18300
C218        C  0.37596285  0.27847817  0.22329291     0.10100
S219        S  0.40099145  0.19429008  0.31138242    -0.33200
S220        S  0.36626782  0.30908269  0.18778234    -0.33200
H221        H  0.34118451  0.33033565  0.19459159     0.28100
H222        H  0.39639488  0.22416153  0.33276780     0.28100
H223        H  0.37986780  0.27809582  0.30141848     0.18700
H224        H  0.38618532  0.22651755  0.19780003     0.18700
C225        C  0.27374482  0.47111681  0.25185251    -0.07100
C226        C  0.26824719  0.50811347  0.23401484    -0.18200
C227        C  0.24013621  0.53141871  0.22969911     0.10100
C228        C  0.21599529  0.51790993  0.24315124    -0.07000
C229        C  0.22133540  0.48046898  0.26045310    -0.18300
C230        C  0.24914637  0.45696390  0.26437513     0.10100
S231        S  0.23629395  0.57744880  0.20630298    -0.33200
S232        S  0.25228249  0.41003371  0.28667683    -0.33200
H233        H  0.26089955  0.38626225  0.26388371     0.28100
H234        H  0.23033294  0.60270741  0.22983775     0.28100
H235        H  0.28677570  0.51999525  0.22419095     0.18700
H236        H  0.20321414  0.46866259  0.27082723     0.18700
C237        C  0.47914198  0.49935089  0.28768315    -0.07100
C238        C  0.47781583  0.53708510  0.27191027    -0.18200
C239        C  0.00549948  0.54558905  0.26788092     0.10100
C240        C  0.02604449  0.51644729  0.26041908    -0.07000
C241        C  0.02654092  0.47609036  0.27205654    -0.18300
C242        C  0.50729297  0.47579579  0.29375167     0.10100
S243        S  0.00730891  0.60015557  0.25918578    -0.33200
S244        S  0.51441145  0.43225172  0.32039956    -0.33200
H245        H  0.54432868  0.42097041  0.31696634     0.28100
H246        H  0.98229640  0.61274703  0.27101030     0.28100
H247        H  0.45698416  0.55625374  0.26869596     0.18700
H248        H  0.04353522  0.45430569  0.26814192     0.18700
C249        C  0.12810359  0.53695026  0.33749925    -0.07100
C250        C  0.13834542  0.49698988  0.34691930    -0.18200
C251        C  0.13693743  0.48072784  0.37575423     0.10100
C252        C  0.12444924  0.50437531  0.39640248    -0.07000
C253        C  0.11612006  0.54539412  0.38813834    -0.18300
C254        C  0.11798467  0.56195261  0.35918761     0.10100
S255        S  0.15158672  0.42907797  0.38441103    -0.33200
S256        S  0.10702382  0.61512362  0.35146484    -0.33200
H257        H  0.13024526  0.62387629  0.33578021     0.28100
H258        H  0.16892014  0.43882156  0.41616345     0.28100
H259        H  0.14643611  0.47728714  0.33108484     0.18700
H260        H  0.10725296  0.56431537  0.40384547     0.18700
C261        C  0.11458032  0.45173532  0.08792186    -0.07100
C262        C  0.08699232  0.47309779  0.08896016    -0.18200
C263        C  0.08227871  0.48477808  0.11773843     0.10100
C264        C  0.10577270  0.47544185  0.14667332    -0.07000
C265        C  0.13233288  0.45165749  0.14582819    -0.18300
C266        C  0.13696311  0.43959134  0.11683381     0.10100
S267        S  0.04738963  0.51517136  0.11579574    -0.33200
S268        S  0.17312292  0.41206520  0.11859031    -0.33200
H269        H  0.17621874  0.42566696  0.08948357     0.28100
H270        H  0.04598608  0.50576929  0.14637682     0.28100
H271        H  0.06925002  0.48204705  0.06698472     0.18700
H272        H  0.15104750  0.44539418  0.16790262     0.18700
C273        C  0.12743044  0.79426564  0.25687108    -0.07100
C274        C  0.14456075  0.76961301  0.28223558    -0.18200
C275        C  0.14792374  0.72704467  0.27818481     0.10100
C276        C  0.13374557  0.70800827  0.24802508    -0.07000
C277        C  0.11624912  0.73264773  0.22267166    -0.18300
C278        C  0.11291558  0.77531889  0.22678416     0.10100
S279        S  0.17226955  0.69926316  0.31197881    -0.33200
S280        S  0.09078601  0.80419309  0.19256349    -0.33200
H281        H  0.08245164  0.83662351  0.20964015     0.28100
H282        H  0.18419743  0.67112404  0.29415836     0.28100
H283        H  0.15706111  0.78416878  0.30506970     0.18700
H284        H  0.10440568  0.71837471  0.19958652     0.18700
C285        C  0.13160245  0.05128092  0.40864633    -0.07100
C286        C  0.15673286  0.06636700  0.39718049    -0.18200
C287        C  0.16003557  0.05174333  0.36821654     0.10100
C288        C  0.13797862  0.02072345  0.35051036    -0.07000
C289        C  0.11150629  0.00829893  0.36078202    -0.18300
C290        C  0.10781030  0.02363202  0.38914451     0.10100
S291        S  0.19446467  0.07132623  0.35708996    -0.33200
S292        S  0.07280738  0.00546904  0.39987662    -0.33200
H293        H  0.07186987  0.04016347  0.41895076     0.28100
H294        H  0.18288173  0.06024338  0.32475917     0.28100
H295        H  0.17532336  0.08735934  0.41196880     0.18700
H296        H  0.09400563  0.98526933  0.34702384     0.18700
C297        C  0.14212065  0.94819495  0.16136384    -0.07100
C298        C  0.11268364  0.95861471  0.13932200    -0.18200
C299        C  0.11133609  0.97136395  0.10868102     0.10100
C300        C  0.14026500  0.97658070  0.10029018    -0.07000
C301        C  0.16952031  0.96411222  0.12186153    -0.18300
C302        C  0.17054560  0.94875370  0.15190960     0.10100
S303        S  0.07226847  0.98358236  0.08231152    -0.33200
S304        S  0.20852354  0.93200410  0.17863852    -0.33200
H305        H  0.22705276  0.93749505  0.15767755     0.28100
H306        H  0.07738384  0.96332648  0.05608738     0.28100
H307        H  0.09075937  0.95803799  0.14634632     0.18700
H308        H  0.19174137  0.96795916  0.11558523     0.18700
C309        C  0.04723789  0.98818755  0.25142925    -0.07100
C310        C  0.03154428  0.98439664  0.27496958    -0.18200
C311        C  0.50391874  0.00710830  0.27168687     0.10100
C312        C  0.49174019  0.03597163  0.24714679    -0.07000
C313        C  0.00747459  0.04042831  0.22618218    -0.18300
C314        C  0.03462917  0.01716278  0.22670359     0.10100
S315        S  0.48568812  0.99898134  0.30292071    -0.33200
S316        S  0.05039049  0.02480405  0.19370169    -0.33200
H317        H  0.05064187  0.98212792  0.18714359     0.28100
H318        H  0.47216392  0.03833818  0.30094932     0.28100
H319        H  0.04111136  0.96406759  0.29485343     0.18700
H320        H  0.99767893  0.06107664  0.20655790     0.18700
C321        C  0.23654395  0.01333879  0.25464396    -0.07100
C322        C  0.23275125  0.02561662  0.22334004    -0.18200
C323        C  0.25856355  0.02429749  0.21078749     0.10100
C324        C  0.28934838  0.01316755  0.23049407    -0.07000
C325        C  0.29350837  0.00298735  0.26231620    -0.18300
C326        C  0.26745303  0.00329706  0.27455130     0.10100
S327        S  0.25017666  0.03346335  0.16885107    -0.33200
S328        S  0.27438452  0.98847698  0.31522569    -0.33200
H329        H  0.24991293  0.01345636  0.31948959     0.28100
H330        H  0.27547952  0.00966327  0.16502084     0.28100
H331        H  0.20865130  0.03110462  0.20741543     0.18700
H332        H  0.31736893  0.99617731  0.27808991     0.18700
C333        C  0.02984271  0.62233118  0.15578312    -0.07100
C334        C  0.00274691  0.62070302  0.16726864    -0.18200
C335        C  0.47570411  0.59689329  0.14154797     0.10100
C336        C  0.46741770  0.62033109  0.11335509    -0.07000
C337        C  0.49285512  0.64387961  0.10695974    -0.18300
C338        C  0.02394017  0.62631753  0.12268750     0.10100
S339        S  0.44706796  0.56358106  0.15249817    -0.33200
S340        S  0.05622318  0.63185056  0.10500503    -0.33200
H341        H  0.07718569  0.65520331  0.13043883     0.28100
H342        H  0.44061922  0.54025727  0.12415976     0.28100
H343        H  0.00656464  0.61799027  0.19254942     0.18700
H344        H  0.48766420  0.66192851  0.08549279     0.18700
C345        C  0.37498535  0.48476267  0.11589319    -0.07100
C346        C  0.40441423  0.47018149  0.13552686    -0.18200
C347        C  0.40881494  0.46215284  0.16774100     0.10100
C348        C  0.38249755  0.46630313  0.18044512    -0.07000
C349        C  0.35216579  0.47675603  0.15972451    -0.18300
C350        C  0.34807026  0.48552188  0.12778187     0.10100
S351        S  0.44959285  0.45133201  0.19166340    -0.33200
S352        S  0.30770111  0.49739346  0.10333349    -0.33200
H353        H  0.31164818  0.48223114  0.07486022     0.28100
H354        H  0.45020172  0.48173140  0.21479654     0.28100
H355        H  0.42509530  0.46890537  0.12662444     0.18700
H356        H  0.33139534  0.47841084  0.16847853     0.18700
C357        C  0.36670318  0.50973136  0.36526780    -0.07100
C358        C  0.39026822  0.54034963  0.37998117    -0.18200
C359        C  0.39210759  0.55733979  0.40982249     0.10100
C360        C  0.37099197  0.54183930  0.42660964    -0.07000
C361        C  0.34579276  0.51389824  0.41065649    -0.18300
C362        C  0.34274562  0.49861129  0.38008238     0.10100
S363        S  0.42214319  0.59843444  0.42473875    -0.33200
S364        S  0.30769588  0.46531657  0.36075151    -0.33200
H365        H  0.29205989  0.46764812  0.38430887     0.28100
H366        H  0.40087163  0.62347808  0.43472298     0.28100
H367        H  0.40788948  0.55064495  0.36847924     0.18700
H368        H  0.32880684  0.50291406  0.42258234     0.18700
C369        C  0.27525103  0.52928600  0.00857514    -0.07100
C370        C  0.25736928  0.53579983  0.02966724    -0.18200
C371        C  0.22822411  0.51319384  0.02699996     0.10100
C372        C  0.21624383  0.48339939  0.50349901    -0.07000
C373        C  0.23002472  0.48850993  0.47871733    -0.18300
C374        C  0.25881806  0.51247935  0.48288608     0.10100
S375        S  0.21117279  0.52108898  0.05900626    -0.33200
S376        S  0.27422729  0.51634182  0.44941876    -0.33200
H377        H  0.29121152  0.55440604  0.45879812     0.28100
H378        H  0.20538054  0.47854333  0.06248038     0.28100
H379        H  0.26753344  0.55629637  0.05003095     0.18700
H380        H  0.21781723  0.47474892  0.45555581     0.18700
C381        C  0.47282219  0.51413343  0.01497974    -0.07100
C382        C  0.46981019  0.47624170  0.99877524    -0.18200
C383        C  0.99628222  0.45827823  0.99850016     0.10100
C384        C  0.01981235  0.49346266  0.48997956    -0.07000
C385        C  0.01683713  0.53562009  0.49509033    -0.18300
C386        C  0.49599565  0.54455884  0.01165668     0.10100
S387        S  0.99845964  0.40297697  0.99300347    -0.33200
S388        S  0.48882147  0.60376339  0.51025776    -0.33200
H389        H  0.52133823  0.61306134  0.01397427     0.28100
H390        H  0.96653783  0.39885953  0.48934065     0.28100
H391        H  0.45154683  0.45334528  0.00022455     0.18700
H392        H  0.03442306  0.55760593  0.49091041     0.18700
C393        C  0.29403452  0.88682704  0.39631428    -0.07100
C394        C  0.27440471  0.92135353  0.39199725    -0.18200
C395        C  0.24435279  0.92216159  0.36876698     0.10100
C396        C  0.23332592  0.88815880  0.34773164    -0.07000
C397        C  0.25356321  0.85398518  0.35065116    -0.18300
C398        C  0.28350532  0.85254779  0.37522687     0.10100
S399        S  0.22161295  0.96818653  0.36731689    -0.33200
S400        S  0.30668348  0.80649082  0.37863256    -0.33200
H401        H  0.31909337  0.80792172  0.41200723     0.28100
H402        H  0.21080046  0.97067156  0.33404361     0.28100
H403        H  0.28291763  0.94860049  0.40699121     0.18700
H404        H  0.24596054  0.82832024  0.33382799     0.18700
C405        C  0.39204770  0.79118047  0.49656674    -0.07100
C406        C  0.39649640  0.77679721  0.02494286    -0.18200
C407        C  0.38943863  0.73646575  0.03287556     0.10100
C408        C  0.37928635  0.70533110  0.00881334    -0.07000
C409        C  0.37811176  0.71958934  0.48012570    -0.18300
C410        C  0.38683207  0.75964657  0.47328978     0.10100
S411        S  0.39489343  0.72687991  0.07426142    -0.33200
S412        S  0.38880530  0.76922503  0.43372557    -0.33200
H413        H  0.41200336  0.80199439  0.44257547     0.28100
H414        H  0.36219140  0.71427578  0.06869924     0.28100
H415        H  0.40222607  0.80088215  0.04320590     0.18700
H416        H  0.37422429  0.69590075  0.46174033     0.18700
C417        C  0.04404861  0.01883718  0.00646966    -0.07100
C418        C  0.02317300  0.03401207  0.02235171    -0.18200
C419        C  0.49215764  0.01849158  0.01638105     0.10100
C420        C  0.48219592  0.98340852  0.49853436    -0.07000
C421        C  0.00383561  0.96336228  0.48663575    -0.18300
C422        C  0.03446568  0.98184149  0.48972142     0.10100
S423        S  0.46949034  0.04169229  0.03977448    -0.33200
S424        S  0.06246111  0.95263873  0.47541228    -0.33200
H425        H  0.04016502  0.92182483  0.45837872     0.28100
H426        H  0.46117523  0.00326534  0.05033031     0.28100
H427        H  0.03040099  0.06153280  0.03730134     0.18700
H428        H  0.99686179  0.93438625  0.47356813     0.18700
C429        C  0.22468990  0.98214603  0.99961998    -0.07100
C430        C  0.25257412  0.99169264  0.02488052    -0.18200
C431        C  0.28250616  0.99594271  0.01967031     0.10100
C432        C  0.28537735  0.99117196  0.48983806    -0.07000
C433        C  0.25776993  0.97710910  0.46574154    -0.18300
C434        C  0.22806356  0.97210272  0.47152636     0.10100
S435        S  0.31684067  0.01259169  0.05275251    -0.33200
S436        S  0.19304702  0.95572883  0.43891067    -0.33200
H437        H  0.17341797  0.94445898  0.45791776     0.28100
H438        H  0.33520216  0.02953864  0.03421468     0.28100
H439        H  0.25051725  0.00072924  0.04787985     0.18700
H440        H  0.25959284  0.96789983  0.44280250     0.18700
C441        C  0.39304294  0.94747602  0.08154853    -0.07100
C442        C  0.41991992  0.97202398  0.09850078    -0.18200
C443        C  0.42217338  0.98951577  0.12828898     0.10100
C444        C  0.39597747  0.98408642  0.14123487    -0.07000
C445        C  0.37022228  0.95657950  0.12542245    -0.18300
C446        C  0.36879702  0.93774486  0.09613825     0.10100
S447        S  0.45887488  0.01882937  0.14896762    -0.33200
S448        S  0.33370869  0.90510294  0.07696959    -0.33200
H449        H  0.35176260  0.87380010  0.06882914     0.28100
H450        H  0.47676618  0.00979276  0.12810962     0.28100
H451        H  0.43875063  0.97874331  0.08772202     0.18700
H452        H  0.35031147  0.95114845  0.13511829     0.18700
C453        C  0.38514514  0.03772579  0.32584476    -0.07100
C454        C  0.40956905  0.01143756  0.34280797    -0.18200
C455        C  0.41062933  0.99643012  0.37279036     0.10100
C456        C  0.38587244  0.00603926  0.38638080    -0.07000
C457        C  0.36259397  0.03435597  0.37065372    -0.18300
C458        C  0.36231639  0.05090711  0.34109519     0.10100
S459        S  0.44491454  0.96572938  0.39275957    -0.33200
S460        S  0.33194985  0.08839197  0.32446615    -0.33200
H461        H  0.35413915  0.11663031  0.31749564     0.28100
H462        H  0.44811105  0.98209629  0.42317681     0.28100
H463        H  0.42804753  0.00193016  0.33255502     0.18700
H464        H  0.34405010  0.04303953  0.38111620     0.18700
O465        O  0.35130749  0.87723775  0.92361215    -0.86300
O466        O  0.38806548  0.94554795  0.91692299    -0.83400
C467        C  0.38222742  0.98347750  0.91534529     0.97100
O468        O  0.37602562  0.00216841  0.93798193    -0.83400
O469        O  0.33069615  0.98938105  0.96942057    -0.86000
C470        C  0.31585350  0.97409677  0.98718272     1.01700
O471        O  0.32762819  0.94490076  0.00443258    -0.78800
O472        O  0.31747655  0.89732534  0.94982823    -0.79000
C473        C  0.32258219  0.88524390  0.92448149     1.01600
O474        O  0.40888689  0.85535377  0.97954286    -0.86300
O475        O  0.43939049  0.93018285  0.97299066    -0.83400
C476        C  0.44741346  0.96442583  0.98844703     0.97200
O477        O  0.42644130  0.98649610  0.99439038    -0.83400
O478        O  0.38517943  0.97738400  0.52942082    -0.86000
C479        C  0.38803339  0.94508897  0.54696851     1.01600
O480        O  0.38203496  0.90872686  0.53473600    -0.78800
O481        O  0.35984079  0.84765346  0.48399471    -0.79000
C482        C  0.38833168  0.83091284  0.98516445     1.01600
Cr483      Cr  0.39523972  0.90366404  0.95046420     1.93700
Cr484      Cr  0.37892663  0.98347868  0.98230170     1.93200
Cr485      Cr  0.34983453  0.89990648  0.99159309     1.39100
O486        O  0.37568993  0.92933384  0.97476647    -1.24100
O487        O  0.42919613  0.63487857  0.55921504    -0.86300
O488        O  0.44611689  0.56333030  0.53925364    -0.83400
C489        C  0.44472099  0.52979950  0.52485483     0.97100
O490        O  0.41843022  0.50855399  0.51617870    -0.83400
O491        O  0.39133878  0.49969670  0.56656348    -0.86000
C492        C  0.37710772  0.51024364  0.58643047     1.01700
O493        O  0.36008651  0.54201702  0.58193752    -0.78800
O494        O  0.40954477  0.60181151  0.59217785    -0.79000
C495        C  0.43321004  0.62119213  0.58683615     1.01600
O496        O  0.37819820  0.63909251  0.49905555    -0.86300
O497        O  0.40678689  0.56517607  0.98005536    -0.83400
C498        C  0.38243843  0.54435404  0.96324696     0.97200
O499        O  0.36301723  0.52725322  0.97624641    -0.83400
O500        O  0.32928366  0.51763081  0.52231320    -0.86000
C501        C  0.30953883  0.54615890  0.52109712     1.01600
O502        O  0.31981776  0.58332742  0.52940039    -0.78800
O503        O  0.36740297  0.65241909  0.54290673    -0.79000
C504        C  0.37150261  0.66489433  0.51711483     1.01600
Cr505      Cr  0.41137453  0.60028699  0.51952455     1.93700
Cr506      Cr  0.37503148  0.51831625  0.52138744     1.93200
Cr507      Cr  0.36523548  0.59396325  0.55952419     1.39100
O508        O  0.38327565  0.57084337  0.53298859    -1.24100
O509        O  0.17555230  0.88666134  0.82068548    -0.86300
O510        O  0.14984245  0.96049628  0.82942678    -0.83400
C511        C  0.14373284  0.99820219  0.82504020     0.97100
O512        O  0.13834624  0.01349983  0.79769828    -0.83400
O513        O  0.18987612  0.00724539  0.77156266    -0.86000
C514        C  0.20800748  0.99119145  0.75751407     1.01700
O515        O  0.20090139  0.95661136  0.74388983    -0.78800
O516        O  0.20918025  0.90709786  0.79442830    -0.79000
C517        C  0.20431132  0.89344438  0.81924095     1.01600
O518        O  0.11495780  0.86548016  0.77000449    -0.86300
O519        O  0.09014799  0.94451220  0.78091092    -0.83400
C520        C  0.07898711  0.96936320  0.75796653     0.97200
O521        O  0.09598760  0.97945394  0.74051050    -0.83400
O522        O  0.14385450  0.97935188  0.71189410    -0.86000
C523        C  0.14186078  0.94628496  0.69555734     1.01600
O524        O  0.14575689  0.91134755  0.70887392    -0.78800
O525        O  0.15954041  0.85350290  0.75851408    -0.79000
C526        C  0.13320533  0.84070978  0.76184836     1.01600
Cr527      Cr  0.13370059  0.91567629  0.79739584     1.93700
Cr528      Cr  0.14285653  0.99053280  0.75664113     1.93200
Cr529      Cr  0.17623403  0.90931798  0.75278985     1.39100
O530        O  0.15049729  0.93844609  0.76898743    -1.24100
O531        O  0.06958812  0.63117739  0.70803741    -0.86300
O532        O  0.05185058  0.56144282  0.73224624    -0.83400
C533        C  0.05284112  0.52782122  0.74624386     0.97100
O534        O  0.07782904  0.50666333  0.75220688    -0.83400
O535        O  0.09880510  0.49439812  0.69818522    -0.86000
C536        C  0.11178807  0.50345658  0.67683479     1.01700
O537        O  0.12976693  0.53550933  0.67952193    -0.78800
O538        O  0.08563527  0.59743049  0.67287549    -0.79000
C539        C  0.06398317  0.61762548  0.67992289     1.01600
O540        O  0.12457388  0.64128290  0.76447350    -0.86300
O541        O  0.10255255  0.57411136  0.79105541    -0.83400
C542        C  0.12472268  0.54970250  0.80467939     0.97200
O543        O  0.14018258  0.53120330  0.78865159    -0.83400
O544        O  0.16260515  0.51229852  0.73767241    -0.86000
C545        C  0.18449646  0.53860931  0.73720497     1.01600
O546        O  0.17697386  0.57621609  0.72994645    -0.78800
O547        O  0.13423448  0.64803629  0.71899487    -0.79000
C548        C  0.13255678  0.66379884  0.74484072     1.01600
Cr549      Cr  0.08937422  0.59958006  0.74776824     1.93700
Cr550      Cr  0.11927114  0.51543543  0.74293689     1.93200
Cr551      Cr  0.13069515  0.58846556  0.70287692     1.44700
O552        O  0.11371203  0.56801325  0.73170758    -1.24100
O553        O  0.40241103  0.39987835  0.83802550    -0.86300
O554        O  0.35498556  0.45841909  0.82738241    -0.83400
C555        C  0.37183159  0.49139716  0.83531918     0.97100
O556        O  0.38934084  0.50425726  0.81878766    -0.83400
O557        O  0.42537014  0.50015839  0.77640951    -0.86000
C558        C  0.45049114  0.47972112  0.78841476     1.01700
O559        O  0.44809962  0.44226356  0.79447021    -0.78800
O560        O  0.42390921  0.36871148  0.80617934    -0.79000
C561        C  0.42644204  0.38181730  0.83370190     1.01600
O562        O  0.36141855  0.35220122  0.78308651    -0.86300
O563        O  0.31759590  0.42233376  0.76964114    -0.83400
C564        C  0.31014791  0.46007950  0.76285992     0.97200
O565        O  0.33218904  0.48792490  0.76724764    -0.83400
O566        O  0.36808150  0.47811597  0.72598031    -0.86000
C567        C  0.38734759  0.46137252  0.71342298     1.01600
O568        O  0.40903932  0.43798505  0.72942275    -0.78800
O569        O  0.37945918  0.36681948  0.74327324    -0.79000
C570        C  0.36857040  0.34046510  0.75855624     1.01600
Cr571      Cr  0.36054278  0.40928409  0.80260166     1.93700
Cr572      Cr  0.37914473  0.48830351  0.77279337     1.93200
Cr573      Cr  0.41262786  0.40633573  0.76901105     1.39100
O574        O  0.38343213  0.43468403  0.78074883    -1.24100
O575        O  0.33789757  0.13139555  0.69406370    -0.86300
O576        O  0.31963566  0.05641928  0.70898830    -0.83400
C577        C  0.31888827  0.02199266  0.72136592     0.97100
O578        O  0.34490600  0.00329238  0.73347721    -0.83400
O579        O  0.37942644  0.99882400  0.68798927    -0.86000
C580        C  0.39581348  0.01159192  0.67024586     1.01700
O581        O  0.41093459  0.04613574  0.67623288    -0.78800
O582        O  0.36163635  0.10131332  0.66368279    -0.79000
C583        C  0.33683752  0.11842115  0.66680612     1.01600
O584        O  0.38251102  0.14074111  0.75666705    -0.86300
O585        O  0.35837399  0.06818280  0.77484089    -0.83400
C586        C  0.38157618  0.04768864  0.79206810     0.97200
O587        O  0.40195739  0.03285418  0.77986695    -0.83400
O588        O  0.43730870  0.02262897  0.73759374    -0.86000
C589        C  0.45748040  0.05250191  0.73978380     1.01600
O590        O  0.44776010  0.08898925  0.73154534    -0.78800
O591        O  0.40012786  0.15449310  0.71633603    -0.79000
C592        C  0.39256143  0.16682359  0.74054816     1.01600
Cr593      Cr  0.35210055  0.09707307  0.73309018     1.93700
Cr594      Cr  0.39028029  0.01841822  0.73356669     1.93200
Cr595      Cr  0.40376328  0.09656206  0.69904816     1.39100
O596        O  0.38293633  0.07092484  0.72275104    -1.24100
O597        O  0.21203562  0.08638370  0.54167411    -0.86300
O598        O  0.19345828  0.03741216  0.48853164    -0.83400
C599        C  0.19726205  0.00342373  0.50247964     0.97100
O600        O  0.17771428  0.98998815  0.51643916    -0.83400
O601        O  0.12821661  0.99168255  0.54491972    -0.86000
C602        C  0.14048609  0.00496516  0.57328253     1.01700
O603        O  0.15329723  0.04074989  0.57854019    -0.78800
O604        O  0.18368175  0.11318241  0.57004653    -0.79000
C605        C  0.21105058  0.10327762  0.56715979     1.01600
O606        O  0.16746726  0.14569126  0.51029292    -0.86300
O607        O  0.14445276  0.09146935  0.95909919    -0.83400
C608        C  0.13538689  0.05763231  0.94379319     0.97200
O609        O  0.13388470  0.02438730  0.95855710    -0.83400
O610        O  0.08976390  0.03329831  0.48915106    -0.86000
C611        C  0.07602954  0.04124894  0.50952747     1.01600
O612        O  0.09165646  0.06182876  0.53467064    -0.78800
O613        O  0.12289057  0.13708687  0.52337030    -0.79000
C614        C  0.14289285  0.16042654  0.51529204     1.01600
Cr615      Cr  0.17693739  0.08826177  0.50096807     1.93700
Cr616      Cr  0.13374228  0.01301709  0.50345998     1.93200
Cr617      Cr  0.13838449  0.08689458  0.54898936     1.39100
O618        O  0.14943757  0.06291467  0.51783076    -1.24100
O619        O  0.08107399  0.37541352  0.93137873    -0.86300
O620        O  0.10791764  0.44690174  0.92184414    -0.83400
C621        C  0.11637498  0.48429019  0.92409053     0.97100
O622        O  0.12053341  0.50340618  0.95019841    -0.83400
O623        O  0.06715840  0.49164418  0.97612808    -0.86000
C624        C  0.04983573  0.47416047  0.99116673     1.01700
O625        O  0.06121602  0.44595535  0.00998070    -0.78800
O626        O  0.05105957  0.39305431  0.96117581    -0.79000
C627        C  0.05305324  0.38157663  0.93460205     1.01600
O628        O  0.14365608  0.35784533  0.98205284    -0.86300
O629        O  0.16950201  0.43714553  0.97206776    -0.83400
C630        C  0.18077793  0.46497779  0.99402168     0.97200
O631        O  0.16265056  0.47966725  0.00866353    -0.83400
O632        O  0.11614512  0.47914418  0.53875059    -0.86000
C633        C  0.11885023  0.44782376  0.55683786     1.01600
O634        O  0.11719871  0.41144534  0.54532207    -0.78800
O635        O  0.10009195  0.34802016  0.49771539    -0.79000
C636        C  0.12574610  0.33276487  0.99136915     1.01600
Cr637      Cr  0.12482689  0.40583232  0.95459654     1.93700
Cr638      Cr  0.11541958  0.48345112  0.99221314     1.93200
Cr639      Cr  0.08529193  0.40004229  0.00168861     1.39100
O640        O  0.10952157  0.42948491  0.98311016    -1.24100
C641        C  0.13857535  0.20540657  0.51162094    -0.07100
C642        C  0.10922593  0.21749306  0.99097530    -0.18200
C643        C  0.10626739  0.25877334  0.98169001     0.10100
C644        C  0.13039519  0.29007585  0.49684906    -0.07000
C645        C  0.16096454  0.27611536  0.51402357    -0.18300
C646        C  0.16525404  0.23426656  0.52182081     0.10100
S647        S  0.06968027  0.27197426  0.95123461    -0.33200
S648        S  0.20492383  0.22003241  0.54642540    -0.33200
H649        H  0.19275831  0.19334224  0.56540560     0.28100
H650        H  0.08656861  0.29668789  0.93506123     0.28100
H651        H  0.08988886  0.19511471  0.97969363     0.18700
H652        H  0.18123203  0.29812751  0.52261168     0.18700
C653        C  0.30538399  0.12013161  0.64013072    -0.07100
C654        C  0.27635102  0.12501955  0.64790992    -0.18200
C655        C  0.24549812  0.12062162  0.62506313     0.10100
C656        C  0.24282032  0.11178942  0.59288449    -0.07000
C657        C  0.27197102  0.10950308  0.58483921    -0.18300
C658        C  0.30276373  0.11351051  0.60778026     0.10100
S659        S  0.21079277  0.12428115  0.63922762    -0.33200
S660        S  0.33782367  0.11196968  0.59407586    -0.33200
H661        H  0.34733902  0.07355438  0.60821798     0.28100
H662        H  0.19728393  0.08558051  0.62619552     0.28100
H663        H  0.27746933  0.13018884  0.67249109     0.18700
H664        H  0.27094785  0.10399840  0.56032070     0.18700
C665        C  0.45890091  0.38003977  0.85877090    -0.07100
C666        C  0.47920535  0.34627427  0.85933586    -0.18200
C667        C  0.01440419  0.35339576  0.87990819     0.10100
C668        C  0.02094417  0.37748450  0.90815896    -0.07000
C669        C  0.99482033  0.39947692  0.91253050    -0.18300
C670        C  0.47244675  0.41449723  0.87874759     0.10100
S671        S  0.04570321  0.32667105  0.86961194    -0.33200
S672        S  0.45046831  0.46017197  0.88067077    -0.33200
H673        H  0.44086685  0.46570372  0.84775583     0.28100
H674        H  0.06545788  0.36271319  0.87208919     0.28100
H675        H  0.46984553  0.32004392  0.84342716     0.18700
H676        H  0.99910831  0.42058123  0.93254302     0.18700
C677        C  0.37126750  0.29534754  0.75228052    -0.07100
C678        C  0.37898540  0.26871063  0.77849641    -0.18200
C679        C  0.38811639  0.22764859  0.77602012     0.10100
C680        C  0.38935253  0.21197784  0.74639384    -0.07000
C681        C  0.38180790  0.23867692  0.72021228    -0.18300
C682        C  0.37255958  0.27961207  0.72270119     0.10100
S683        S  0.39966635  0.19643488  0.81138367    -0.33200
S684        S  0.36164935  0.30959662  0.68687314    -0.33200
H685        H  0.33728517  0.33136353  0.69456700     0.28100
H686        H  0.39431228  0.22599123  0.83259401     0.28100
H687        H  0.37922681  0.28069198  0.80150402     0.18700
H688        H  0.38166401  0.22705325  0.69710335     0.18700
C689        C  0.27613139  0.47576953  0.75203207    -0.07100
C690        C  0.27120644  0.51469936  0.73675217    -0.18200
C691        C  0.24282440  0.53722917  0.73281970     0.10100
C692        C  0.21785701  0.52095315  0.74406666    -0.07000
C693        C  0.22267664  0.48159917  0.75875000    -0.18300
C694        C  0.25065823  0.45880316  0.76207404     0.10100
S695        S  0.23985489  0.58599052  0.71285934    -0.33200
S696        S  0.25253511  0.40870894  0.78001695    -0.33200
H697        H  0.26166036  0.38891281  0.75572624     0.28100
H698        H  0.23266220  0.60779556  0.73741410     0.28100
H699        H  0.29027089  0.52860351  0.72857798     0.18700
H700        H  0.20399697  0.46757513  0.76740247     0.18700
C701        C  0.48230313  0.49783537  0.78968932    -0.07100
C702        C  0.48323391  0.53874557  0.77957296    -0.18200
C703        C  0.00819950  0.54494398  0.76952241     0.10100
C704        C  0.02779750  0.51572259  0.76073084    -0.07000
C705        C  0.02744143  0.47469196  0.77082686    -0.18300
C706        C  0.50852226  0.47218494  0.79113104     0.10100
S707        S  0.01076077  0.59979901  0.76201621    -0.33200
S708        S  0.51428732  0.42373365  0.81231554    -0.33200
H709        H  0.54311614  0.41282647  0.80629268     0.28100
H710        H  0.98804548  0.61276555  0.77676258     0.28100
H711        H  0.46419824  0.55933257  0.78042712     0.18700
H712        H  0.04373023  0.45281813  0.76569366     0.18700
C713        C  0.12884239  0.53806609  0.83841704    -0.07100
C714        C  0.13842974  0.49775668  0.84732051    -0.18200
C715        C  0.13584558  0.48073351  0.87548223     0.10100
C716        C  0.12277478  0.50394830  0.89589423    -0.07000
C717        C  0.11526962  0.54536918  0.88828114    -0.18300
C718        C  0.11835965  0.56269860  0.86002514     0.10100
S719        S  0.15001142  0.42884048  0.88373848    -0.33200
S720        S  0.10860508  0.61636482  0.85306293    -0.33200
H721        H  0.13175574  0.62460783  0.83720440     0.28100
H722        H  0.16839038  0.43889127  0.91513793     0.28100
H723        H  0.14684175  0.47837787  0.83152303     0.18700
H724        H  0.10618927  0.56405149  0.90396547     0.18700
C725        C  0.11575297  0.45451627  0.58905321    -0.07100
C726        C  0.08811548  0.47535306  0.59057586    -0.18200
C727        C  0.08381641  0.48668102  0.61960659     0.10100
C728        C  0.10776081  0.47744056  0.64825046    -0.07000
C729        C  0.13444564  0.45429752  0.64694536    -0.18300
C730        C  0.13869794  0.44253123  0.61774839     0.10100
S731        S  0.04893650  0.51675611  0.61837715    -0.33200
S732        S  0.17521766  0.41575660  0.61934921    -0.33200
H733        H  0.17386904  0.41941028  0.58738879     0.28100
H734        H  0.04805983  0.50705806  0.64908343     0.28100
H735        H  0.07001190  0.48414382  0.56878316     0.18700
H736        H  0.15349144  0.44823089  0.66883333     0.18700
C737        C  0.12667078  0.79549950  0.75835225    -0.07100
C738        C  0.14369124  0.77101793  0.78391919    -0.18200
C739        C  0.14768204  0.72855461  0.77993489     0.10100
C740        C  0.13415845  0.70949227  0.74968212    -0.07000
C741        C  0.11697533  0.73398652  0.72413023    -0.18300
C742        C  0.11313518  0.77650745  0.72813951     0.10100
S743        S  0.17207501  0.70102261  0.81387111    -0.33200
S744        S  0.09177253  0.80526591  0.69356162    -0.33200
H745        H  0.08244963  0.83737202  0.71021147     0.28100
H746        H  0.18419327  0.67284072  0.79623456     0.28100
H747        H  0.15572128  0.78567510  0.80682188     0.18700
H748        H  0.10576178  0.71970691  0.70092871     0.18700
C749        C  0.13160972  0.05393125  0.90927745    -0.07100
C750        C  0.15733760  0.06823507  0.89839550    -0.18200
C751        C  0.16108790  0.05321450  0.86972428     0.10100
C752        C  0.13882416  0.02259879  0.85170355    -0.07000
C753        C  0.11172585  0.01111721  0.86130984    -0.18300
C754        C  0.10761956  0.02686565  0.88938272     0.10100
S755        S  0.19621854  0.07198671  0.85941753    -0.33200
S756        S  0.07188815  0.00985517  0.89933312    -0.33200
H757        H  0.07154983  0.04427419  0.91889172     0.28100
H758        H  0.18668999  0.05777677  0.82777155     0.28100
H759        H  0.17608071  0.08875976  0.91350782     0.18700
H760        H  0.09402589  0.98850700  0.84726445     0.18700
C761        C  0.13907107  0.95053251  0.66147299    -0.07100
C762        C  0.11107675  0.96773454  0.64129661    -0.18200
C763        C  0.11008165  0.98177113  0.61109182     0.10100
C764        C  0.13800030  0.98039473  0.60086436    -0.07000
C765        C  0.16577983  0.96192248  0.62065311    -0.18300
C766        C  0.16641814  0.94635466  0.65061277     0.10100
S767        S  0.07310832  0.00380563  0.58749737    -0.33200
S768        S  0.20309979  0.92435247  0.67590014    -0.33200
H769        H  0.22140334  0.92842454  0.65461915     0.28100
H770        H  0.07324205  0.98100021  0.56036320     0.28100
H771        H  0.09019294  0.97164356  0.64959840     0.18700
H772        H  0.18739053  0.96139466  0.61318996     0.18700
C773        C  0.04744602  0.99097314  0.75338390    -0.07100
C774        C  0.03197622  0.98820049  0.77714393    -0.18200
C775        C  0.50544269  0.01394444  0.77417213     0.10100
C776        C  0.49225317  0.04092883  0.74857064    -0.07000
C777        C  0.00815342  0.04349501  0.72771829    -0.18300
C778        C  0.03495314  0.01956622  0.72833285     0.10100
S779        S  0.48852859  0.00842126  0.80658480    -0.33200
S780        S  0.05029606  0.02579659  0.69492071    -0.33200
H781        H  0.05029617  0.98290262  0.68906904     0.28100
H782        H  0.47366380  0.04702350  0.80269783     0.28100
H783        H  0.04147855  0.96816597  0.79722971     0.18700
H784        H  0.99837160  0.06371542  0.70780904     0.18700
C785        C  0.23634243  0.01189520  0.75297516    -0.07100
C786        C  0.23272332  0.02258562  0.72133284    -0.18200
C787        C  0.25870316  0.02053616  0.70904004     0.10100
C788        C  0.28951114  0.01042510  0.72926745    -0.07000
C789        C  0.29333673  0.00078409  0.76110694    -0.18300
C790        C  0.26711873  0.00162482  0.77308444     0.10100
S791        S  0.25061821  0.02750383  0.66687946    -0.33200
S792        S  0.27371063  0.98702465  0.81372428    -0.33200
H793        H  0.25033375  0.01382083  0.81808070     0.28100
H794        H  0.27698372  0.00484055  0.66425893     0.28100
H795        H  0.20867630  0.02765012  0.70512856     0.18700
H796        H  0.31712352  0.99422057  0.77715511     0.18700
C797        C  0.03086967  0.62338095  0.65655526    -0.07100
C798        C  0.00363309  0.61924810  0.66766503    -0.18200
C799        C  0.47254954  0.61985051  0.64426134     0.10100
C800        C  0.46648070  0.62547482  0.61119619    -0.07000
C801        C  0.49372262  0.63292685  0.60037484    -0.18300
C802        C  0.02515335  0.63043072  0.62378711     0.10100
S803        S  0.44049347  0.61151435  0.66180919    -0.33200
S804        S  0.05769843  0.63902448  0.60681650    -0.33200
H805        H  0.07854229  0.66014503  0.63360408     0.28100
H806        H  0.43205825  0.57209655  0.64754700     0.28100
H807        H  0.00751943  0.61452303  0.69276075     0.18700
H808        H  0.49008679  0.63781447  0.57531585     0.18700
C809        C  0.38012710  0.48714256  0.61586905    -0.07100
C810        C  0.41066509  0.48647259  0.63882375    -0.18200
C811        C  0.41361565  0.47833943  0.67069480     0.10100
C812        C  0.38546674  0.46970059  0.67993539    -0.07000
C813        C  0.35510954  0.46765948  0.65647734    -0.18300
C814        C  0.35226367  0.47558093  0.62459677     0.10100
S815        S  0.45364095  0.48383944  0.69885683    -0.33200
S816        S  0.31243226  0.47028121  0.59595863    -0.33200
H817        H  0.32337200  0.46233874  0.56966451     0.28100
H818        H  0.44300667  0.50689221  0.72061378     0.28100
H819        H  0.43210475  0.49589017  0.63246569     0.18700
H820        H  0.33350049  0.45960596  0.66298287     0.18700
C821        C  0.37138603  0.51299222  0.86505018    -0.07100
C822        C  0.39901199  0.53575153  0.88297346    -0.18200
C823        C  0.40263929  0.54866475  0.91424768     0.10100
C824        C  0.37809478  0.53813339  0.92856437    -0.07000
C825        C  0.34913125  0.51903558  0.90936141    -0.18300
C826        C  0.34516879  0.50723974  0.87773806     0.10100
S827        S  0.44003669  0.57661298  0.93442104    -0.33200
S828        S  0.30613978  0.48571779  0.85383521    -0.33200
H829        H  0.28946939  0.49118221  0.87630012     0.28100
H830        H  0.42406253  0.61060037  0.94212254     0.28100
H831        H  0.41868732  0.54198234  0.87308934     0.18700
H832        H  0.32964552  0.51257098  0.91932641     0.18700
C833        C  0.27462845  0.53266772  0.51239635    -0.07100
C834        C  0.26069592  0.52815086  0.53700897    -0.18200
C835        C  0.23248852  0.50322796  0.53325180     0.10100
C836        C  0.21473486  0.48430984  0.00126406    -0.07000
C837        C  0.23241804  0.47869362  0.97969326    -0.18300
C838        C  0.26215582  0.50034200  0.98314801     0.10100
S839        S  0.21991976  0.49572205  0.56824543    -0.33200
S840        S  0.28231680  0.48982510  0.95393274    -0.33200
H841        H  0.29653663  0.52982677  0.95558793     0.28100
H842        H  0.20936645  0.45428373  0.56059655     0.28100
H843        H  0.27326708  0.54165556  0.56020012     0.18700
H844        H  0.22282822  0.45771271  0.95955815     0.18700
C845        C  0.47107228  0.51880040  0.51245826    -0.07100
C846        C  0.47222509  0.47735262  0.50434971    -0.18200
C847        C  0.99706802  0.46432486  0.49559933     0.10100
C848        C  0.01822302  0.48768124  0.99167862    -0.07000
C849        C  0.01466129  0.52982754  0.99606351    -0.18300
C850        C  0.49167824  0.54875641  0.50413542     0.10100
S851        S  0.99809742  0.40922248  0.48854111    -0.33200
S852        S  0.49988270  0.59595519  0.02924546    -0.33200
H853        H  0.50977036  0.61720715  0.49316857     0.28100
H854        H  0.96639135  0.39266070  0.99224390     0.28100
H855        H  0.45561198  0.45486911  0.50963877     0.18700
H856        H  0.03173078  0.55200260  0.99118322     0.18700
C857        C  0.29379828  0.88476252  0.89565162    -0.07100
C858        C  0.27554540  0.92058823  0.89123528    -0.18200
C859        C  0.24555536  0.92278313  0.86796451     0.10100
C860        C  0.23322192  0.88875975  0.84723763    -0.07000
C861        C  0.25194265  0.85313348  0.85048279    -0.18300
C862        C  0.28179850  0.85043462  0.87495510     0.10100
S863        S  0.22435676  0.97019363  0.86647690    -0.33200
S864        S  0.30282068  0.80259075  0.87889407    -0.33200
H865        H  0.31560217  0.80486074  0.91222022     0.28100
H866        H  0.21113676  0.97124636  0.83328483     0.28100
H867        H  0.28495833  0.94752686  0.90631211     0.18700
H868        H  0.24316749  0.82727107  0.83405484     0.18700
C869        C  0.39403755  0.78729027  0.99355952    -0.07100
C870        C  0.38931403  0.78142072  0.52657454    -0.18200
C871        C  0.38062191  0.74136789  0.53357252     0.10100
C872        C  0.37477225  0.70955292  0.51008438    -0.07000
C873        C  0.37802621  0.71578516  0.97752476    -0.18300
C874        C  0.38544778  0.75606143  0.96976524     0.10100
S875        S  0.37709846  0.73366664  0.57273778    -0.33200
S876        S  0.38204971  0.76609425  0.92877491    -0.33200
H877        H  0.40349075  0.80080780  0.93486949     0.28100
H878        H  0.34552651  0.71584759  0.56114681     0.28100
H879        H  0.39184242  0.80600616  0.54408601     0.18700
H880        H  0.37137897  0.69225393  0.95885217     0.18700
C881        C  0.04333859  0.02119340  0.50531200    -0.07100
C882        C  0.02191285  0.03892336  0.51943989    -0.18200
C883        C  0.49243254  0.02124446  0.51612369     0.10100
C884        C  0.48168357  0.98159098  0.99762454    -0.07000
C885        C  0.00465843  0.96145441  0.98553265    -0.18300
C886        C  0.03517619  0.98059026  0.98917586     0.10100
S887        S  0.46903047  0.04687737  0.53765992    -0.33200
S888        S  0.06274603  0.95383927  0.97272037    -0.33200
H889        H  0.04597352  0.91518767  0.96756776     0.28100
H890        H  0.45989842  0.00956189  0.54913377     0.28100
H891        H  0.02893523  0.06777013  0.53277049     0.18700
H892        H  0.99733179  0.93407248  0.97049568     0.18700
C893        C  0.22575710  0.98245889  0.50177382    -0.07100
C894        C  0.25358986  0.99462159  0.52630552    -0.18200
C895        C  0.28314940  0.00004093  0.52040896     0.10100
C896        C  0.28505746  0.98755907  0.98918230    -0.07000
C897        C  0.25734760  0.97613888  0.96419617    -0.18300
C898        C  0.22710670  0.97337585  0.96911653     0.10100
S899        S  0.31769050  0.01739442  0.55300492    -0.33200
S900        S  0.19191976  0.96186694  0.93523658    -0.33200
H901        H  0.17099022  0.95081325  0.95296601     0.28100
H902        H  0.33542314  0.03468975  0.53400477     0.28100
H903        H  0.25162373  0.00438818  0.54919441     0.18700
H904        H  0.25935205  0.96781810  0.94118352     0.18700
C905        C  0.39402854  0.95174494  0.58163186    -0.07100
C906        C  0.42045290  0.97732237  0.59803155    -0.18200
C907        C  0.42291468  0.99471188  0.62787732     0.10100
C908        C  0.39760164  0.98733871  0.64178039    -0.07000
C909        C  0.37231241  0.95899196  0.62638500    -0.18300
C910        C  0.37045848  0.94088673  0.59677745     0.10100
S911        S  0.45863668  0.02660698  0.64718791    -0.33200
S912        S  0.33547577  0.90794369  0.57789447    -0.33200
H913        H  0.35374169  0.87643064  0.57034416     0.28100
H914        H  0.47469303  0.02241595  0.62408974     0.28100
H915        H  0.43869865  0.98491993  0.58672977     0.18700
H916        H  0.35295455  0.95243008  0.63663215     0.18700
C917        C  0.38339670  0.03791158  0.82591262    -0.07100
C918        C  0.40876903  0.01334911  0.84351444    -0.18200
C919        C  0.40983639  0.99809789  0.87342760     0.10100
C920        C  0.38428088  0.00567043  0.88636726    -0.07000
C921        C  0.35986098  0.03224304  0.87000282    -0.18300
C922        C  0.35945933  0.04907478  0.84045457     0.10100
S923        S  0.44509521  0.96959327  0.89423671    -0.33200
S924        S  0.32749727  0.08417547  0.82287119    -0.33200
H925        H  0.34872941  0.11440757  0.81657253     0.28100
H926        H  0.44687156  0.98582265  0.92434252     0.28100
H927        H  0.42803410  0.00540551  0.83382885     0.18700
H928        H  0.34055688  0.03924356  0.87992301     0.18700
O929        O  0.85111877  0.87867975  0.42524978    -0.86300
O930        O  0.88981204  0.94542158  0.41924281    -0.83400
C931        C  0.88318588  0.98311284  0.41660254     0.97100
O932        O  0.87584047  0.00230720  0.43840641    -0.83400
O933        O  0.83050974  0.99146946  0.46993557    -0.86000
C934        C  0.81554331  0.97644762  0.48766281     1.01700
O935        O  0.82759979  0.94806569  0.50550217    -0.78800
O936        O  0.81681987  0.90073396  0.45033720    -0.79000
C937        C  0.82229105  0.88777762  0.42534367     1.01600
O938        O  0.90734958  0.85592955  0.48278268    -0.86300
O939        O  0.93963621  0.92958061  0.47626556    -0.83400
C940        C  0.94751886  0.96469769  0.49046511     0.97200
O941        O  0.92635656  0.98776188  0.49497538    -0.83400
O942        O  0.88522188  0.97141492  0.03051364    -0.86000
C943        C  0.88754274  0.93862271  0.04742222     1.01600
O944        O  0.88151238  0.90267339  0.03445352    -0.78800
O945        O  0.85942753  0.84304274  0.98263973    -0.79000
C946        C  0.88590797  0.83232128  0.48770629     1.01600
Cr947      Cr  0.89531763  0.90395944  0.45292159     1.93700
Cr948      Cr  0.87881430  0.98499070  0.48304369     1.93200
Cr949      Cr  0.84867672  0.90242841  0.49245453     1.39100
O950        O  0.87533342  0.93081631  0.47611975    -1.24100
O951        O  0.92768886  0.63178155  0.06164157    -0.86300
O952        O  0.94606290  0.55870837  0.04497399    -0.83400
C953        C  0.94529910  0.52450100  0.03160285     0.97100
O954        O  0.91922043  0.50288768  0.02300599    -0.83400
O955        O  0.89003453  0.49736340  0.07197826    -0.86000
C956        C  0.87508193  0.50900201  0.09094448     1.01700
O957        O  0.85794575  0.54065704  0.08501940    -0.78800
O958        O  0.90744072  0.60021580  0.09473694    -0.79000
C959        C  0.93134703  0.61892669  0.08935470     1.01600
O960        O  0.87903613  0.63380544  0.00053014    -0.86300
O961        O  0.90274984  0.57002374  0.48086771    -0.83400
C962        C  0.87963724  0.54618751  0.46540748     0.97200
O963        O  0.86159213  0.52833407  0.47956231    -0.83400
O964        O  0.82887902  0.51338804  0.02534155    -0.86000
C965        C  0.80881030  0.54190344  0.02268170     1.01600
O966        O  0.81873972  0.57934862  0.03042999    -0.78800
O967        O  0.86605850  0.64880519  0.04304848    -0.79000
C968        C  0.87136006  0.66029749  0.01751851     1.01600
Cr969      Cr  0.91164920  0.59523901  0.02310980     1.93700
Cr970      Cr  0.87518365  0.51355389  0.02617194     1.93200
Cr971      Cr  0.86365805  0.59124692  0.06128706     1.39100
O972        O  0.88276179  0.56669599  0.03618445    -1.24100
O973        O  0.67605363  0.88540422  0.31833266    -0.86300
O974        O  0.64815647  0.95791877  0.32623768    -0.83400
C975        C  0.64104465  0.99533899  0.32181184     0.97100
O976        O  0.63500072  0.01072476  0.29443276    -0.83400
O977        O  0.68795061  0.00865598  0.27100024    -0.86000
C978        C  0.70784103  0.99408834  0.25848228     1.01700
O979        O  0.70242764  0.95969340  0.24428863    -0.78800
O980        O  0.71053142  0.90920471  0.29415545    -0.79000
C981        C  0.70505734  0.89404491  0.31823488     1.01600
O982        O  0.61714628  0.86291159  0.26579552    -0.86300
O983        O  0.58961551  0.94072270  0.27661809    -0.83400
C984        C  0.57838139  0.96539319  0.25352639     0.97200
O985        O  0.59547584  0.97511481  0.23610275    -0.83400
O986        O  0.64513483  0.97904401  0.20981535    -0.86000
C987        C  0.64448237  0.94600990  0.19378019     1.01600
O988        O  0.64945942  0.91136471  0.20737032    -0.78800
O989        O  0.66330595  0.85348715  0.25660718    -0.79000
C990        C  0.63667562  0.83928910  0.25842470     1.01600
Cr991      Cr  0.63378456  0.91314290  0.29399011     1.93700
Cr992      Cr  0.64179905  0.98914111  0.25398482     1.93200
Cr993      Cr  0.67875869  0.91042266  0.25177704     1.39100
O994        O  0.65105776  0.93748207  0.26663007    -1.24100
O995        O  0.57293698  0.63103824  0.20582932    -0.86300
O996        O  0.55388729  0.56466940  0.23193857    -0.83400
C997        C  0.55293340  0.53089674  0.24506612     0.97100
O998        O  0.57645383  0.50717895  0.24969352    -0.83400
O999        O  0.59634647  0.49412614  0.19459760    -0.86000
C1000       C  0.60960330  0.50218071  0.17326298     1.01700
O1001       O  0.63020809  0.53169682  0.17718302    -0.78800
O1002       O  0.58807290  0.59583374  0.17059992    -0.79000
C1003       C  0.56676499  0.61640779  0.17787450     1.01600
O1004       O  0.62958340  0.63968402  0.26193055    -0.86300
O1005       O  0.60604627  0.57437969  0.28931616    -0.83400
C1006       C  0.62644551  0.54750434  0.30228779     0.97200
O1007       O  0.64013141  0.52694730  0.28567453    -0.83400
O1008       O  0.66168909  0.50738626  0.23436012    -0.86000
C1009       C  0.68455101  0.53314081  0.23537847     1.01600
O1010       O  0.67817154  0.57106060  0.22818024    -0.78800
O1011       O  0.63778171  0.64526537  0.21588867    -0.79000
C1012       C  0.63711191  0.66173316  0.24182798     1.01600
Cr1013     Cr  0.59276514  0.59995873  0.24608819     1.93700
Cr1014     Cr  0.61823285  0.51314966  0.23981036     1.93200
Cr1015     Cr  0.63268297  0.58519749  0.20051184     1.44700
O1016       O  0.61507463  0.56622687  0.22936485    -1.24100
O1017       O  0.90137312  0.39184279  0.34198653    -0.86300
O1018       O  0.85429036  0.45013291  0.33146045    -0.83400
C1019       C  0.87136755  0.48286706  0.34009318     0.97100
O1020       O  0.88928128  0.49596944  0.32402324    -0.83400
O1021       O  0.92456169  0.49427158  0.28040005    -0.86000
C1022       C  0.94974509  0.47406249  0.29256586     1.01700
O1023       O  0.94717437  0.43766230  0.30073478    -0.78800
O1024       O  0.92472091  0.36298224  0.31080663    -0.79000
C1025       C  0.92628756  0.37544727  0.33828247     1.01600
O1026       O  0.86172010  0.34492810  0.28611622    -0.86300
O1027       O  0.81720983  0.41468409  0.27301369    -0.83400
C1028       C  0.80968939  0.45259394  0.26709720     0.97200
O1029       O  0.83162965  0.48074384  0.27286935    -0.83400
O1030       O  0.86700739  0.47202867  0.23103294    -0.86000
C1031       C  0.88657916  0.45642728  0.21828837     1.01600
O1032       O  0.90888940  0.43359127  0.23424020    -0.78800
O1033       O  0.88122337  0.36074130  0.24738009    -0.79000
C1034       C  0.86983147  0.33394463  0.26192376     1.01600
Cr1035     Cr  0.86000774  0.40144260  0.30624715     1.93700
Cr1036     Cr  0.87854138  0.48154473  0.27782361     1.93200
Cr1037     Cr  0.91310599  0.40097839  0.27386794     1.39100
O1038       O  0.88304560  0.42781817  0.28508850    -1.24100
O1039       O  0.83771712  0.12759938  0.19389123    -0.86300
O1040       O  0.81903528  0.05285756  0.20822703    -0.83400
C1041       C  0.81725014  0.01942211  0.22148675     0.97100
O1042       O  0.84274616  0.99962392  0.23365106    -0.83400
O1043       O  0.87683420  0.99345274  0.18761356    -0.86000
C1044       C  0.89350306  0.00535618  0.16989247     1.01700
O1045       O  0.90905469  0.03974482  0.17557838    -0.78800
O1046       O  0.86100142  0.09682693  0.16340600    -0.79000
C1047       C  0.83662624  0.11498891  0.16650413     1.01600
O1048       O  0.88266513  0.13525766  0.25675214    -0.86300
O1049       O  0.85764536  0.06376871  0.27460507    -0.83400
C1050       C  0.88098244  0.04343504  0.29184098     0.97200
O1051       O  0.90090719  0.02791984  0.27940768    -0.83400
O1052       O  0.93547822  0.01610486  0.23675624    -0.86000
C1053       C  0.95594488  0.04577129  0.23926605     1.01600
O1054       O  0.94660101  0.08236943  0.23113607    -0.78800
O1055       O  0.90030080  0.14894240  0.21641779    -0.79000
C1056       C  0.89317144  0.16118965  0.24092456     1.01600
Cr1057     Cr  0.85159592  0.09274102  0.23280595     1.93700
Cr1058     Cr  0.88840744  0.01317883  0.23316456     1.93200
Cr1059     Cr  0.90293322  0.09082320  0.19866037     1.39100
O1060       O  0.88189346  0.06581828  0.22235663    -1.24100
O1061       O  0.71231610  0.08480758  0.04042027    -0.86300
O1062       O  0.69317293  0.03697909  0.98635912    -0.83400
C1063       C  0.69663922  0.00256640  0.99972942     0.97100
O1064       O  0.67687207  0.98878788  0.01331613    -0.83400
O1065       O  0.62778419  0.99000608  0.04218430    -0.86000
C1066       C  0.64076521  0.00229207  0.07070137     1.01700
O1067       O  0.65399303  0.03782168  0.07644696    -0.78800
O1068       O  0.68407835  0.11107892  0.06906232    -0.79000
C1069       C  0.71143207  0.10150734  0.06603406     1.01600
O1070       O  0.66772601  0.14481325  0.01002966    -0.86300
O1071       O  0.64536436  0.08790548  0.45660301    -0.83400
C1072       C  0.63577266  0.05391845  0.44176981     0.97200
O1073       O  0.63426662  0.02111745  0.45703139    -0.83400
O1074       O  0.58951641  0.03371207  0.98740404    -0.86000
C1075       C  0.57605990  0.04067401  0.00815513     1.01600
O1076       O  0.59204213  0.06000733  0.03377497    -0.78800
O1077       O  0.62331570  0.13560031  0.02334202    -0.79000
C1078       C  0.64324380  0.15928003  0.01543131     1.01600
Cr1079     Cr  0.67703090  0.08764918  0.99976861     1.93700
Cr1080     Cr  0.63320821  0.01251769  0.00104831     1.93200
Cr1081     Cr  0.63882467  0.08485924  0.04800651     1.39100
O1082       O  0.64948004  0.06186115  0.01629748    -1.24100
O1083       O  0.58152470  0.37609879  0.43060544    -0.86300
O1084       O  0.61124792  0.44571481  0.42070625    -0.83400
C1085       C  0.61925378  0.48326739  0.42252058     0.97100
O1086       O  0.62275454  0.50315588  0.44818446    -0.83400
O1087       O  0.56838732  0.49503179  0.47240462    -0.86000
C1088       C  0.55010888  0.47899769  0.48701130     1.01700
O1089       O  0.56058878  0.45146513  0.50680070    -0.78800
O1090       O  0.55099272  0.39669662  0.45911467    -0.79000
C1091       C  0.55348867  0.38395247  0.43306489     1.01600
O1092       O  0.64200993  0.35752959  0.48287881    -0.86300
O1093       O  0.67065064  0.43467765  0.47316007    -0.83400
C1094       C  0.68171120  0.46278965  0.49489587     0.97200
O1095       O  0.66314005  0.47996479  0.50786147    -0.83400
O1096       O  0.60967654  0.47847823  0.03236001    -0.86000
C1097       C  0.61186482  0.44783660  0.05093811     1.01600
O1098       O  0.61075749  0.41120980  0.04018652    -0.78800
O1099       O  0.59734773  0.34658949  0.99463559    -0.79000
C1100       C  0.62305834  0.33369689  0.49185002     1.01600
Cr1101     Cr  0.62551311  0.40529733  0.45452531     1.93700
Cr1102     Cr  0.61628810  0.48525476  0.49001754     1.93200
Cr1103     Cr  0.58415108  0.40388097  0.50010968     1.39100
O1104       O  0.60960431  0.43117987  0.48175026    -1.24100
C1105       C  0.63858870  0.20425198  0.01204910    -0.07100
C1106       C  0.60777486  0.21827248  0.50008421    -0.18200
C1107       C  0.60180487  0.25989405  0.49301650     0.10100
C1108       C  0.62840696  0.28856718  0.99670521    -0.07000
C1109       C  0.65981342  0.27508257  0.01148373    -0.18300
C1110       C  0.66513282  0.23347019  0.01968270     0.10100
S1111       S  0.55962837  0.27314403  0.47813204    -0.33200
S1112       S  0.70606950  0.22013446  0.04141879    -0.33200
H1113       H  0.69657152  0.19236719  0.06156851     0.28100
H1114       H  0.56398693  0.29745497  0.45335129     0.28100
H1115       H  0.58736929  0.19668534  0.49716582     0.18700
H1116       H  0.68012591  0.29728054  0.01774504     0.18700
C1117       C  0.80554685  0.11822617  0.13948281    -0.07100
C1118       C  0.77652640  0.12568494  0.14663819    -0.18200
C1119       C  0.74576195  0.12167680  0.12354822     0.10100
C1120       C  0.74319970  0.11020855  0.09180343    -0.07000
C1121       C  0.77245449  0.10600791  0.08423246    -0.18300
C1122       C  0.80313544  0.11015290  0.10734791     0.10100
S1123       S  0.71097142  0.12982959  0.13687734    -0.33200
S1124       S  0.83840782  0.10728205  0.09408514    -0.33200
H1125       H  0.84684244  0.06849487  0.10803470     0.28100
H1126       H  0.69670723  0.09053691  0.12631084     0.28100
H1127       H  0.77751191  0.13260370  0.17095734     0.18700
H1128       H  0.77161315  0.09899700  0.05996689     0.18700
C1129       C  0.95843902  0.37490938  0.36427655    -0.07100
C1130       C  0.98369814  0.35020343  0.36064479    -0.18200
C1131       C  0.51324384  0.35181531  0.38098314     0.10100
C1132       C  0.52197502  0.38132576  0.40615066    -0.07000
C1133       C  0.49823661  0.40955471  0.40779098    -0.18300
C1134       C  0.96648953  0.40335406  0.39015125     0.10100
S1135       S  0.54151902  0.31513220  0.37542714    -0.33200
S1136       S  0.93845745  0.43929873  0.39718253    -0.33200
H1137       H  0.93705487  0.46060392  0.36915115     0.28100
H1138       H  0.56520269  0.34582109  0.37522309     0.28100
H1139       H  0.97873847  0.32913623  0.34042592     0.18700
H1140       H  0.50456846  0.43409711  0.42561859     0.18700
C1141       C  0.87269049  0.28910889  0.25500063    -0.07100
C1142       C  0.88089636  0.26192735  0.28084582    -0.18200
C1143       C  0.89003975  0.22107399  0.27761442     0.10100
C1144       C  0.89079270  0.20623091  0.24758506    -0.07000
C1145       C  0.88296984  0.23355791  0.22183110    -0.18300
C1146       C  0.87370054  0.27427886  0.22508024     0.10100
S1147       S  0.90215538  0.18901806  0.31250613    -0.33200
S1148       S  0.86223050  0.30513785  0.18972535    -0.33200
H1149       H  0.83817492  0.32657000  0.19820802     0.28100
H1150       H  0.89566252  0.21724086  0.33398745     0.28100
H1151       H  0.88149052  0.27332674  0.30411856     0.18700
H1152       H  0.88246369  0.22253614  0.19845716     0.18700
C1153       C  0.77570343  0.46808043  0.25519105    -0.07100
C1154       C  0.77092902  0.50477688  0.23706268    -0.18200
C1155       C  0.74280780  0.52822620  0.23166132     0.10100
C1156       C  0.71782279  0.51497363  0.24407165    -0.07000
C1157       C  0.72252472  0.47798899  0.26189129    -0.18300
C1158       C  0.75053603  0.45449775  0.26714916     0.10100
S1159       S  0.74009280  0.57411550  0.20825881    -0.33200
S1160       S  0.75326129  0.40854673  0.29050620    -0.33200
H1161       H  0.76210647  0.38360046  0.26848112     0.28100
H1162       H  0.73376054  0.59970699  0.23141701     0.28100
H1163       H  0.79001052  0.51629242  0.22783984     0.18700
H1164       H  0.70380055  0.46665527  0.27165781     0.18700
C1165       C  0.98112952  0.49018917  0.29088175    -0.07100
C1166       C  0.98307214  0.53184554  0.28281183    -0.18200
C1167       C  0.50131130  0.54869183  0.25771736     0.10100
C1168       C  0.52685981  0.52139826  0.25922118    -0.07000
C1169       C  0.53031172  0.48646935  0.27870374    -0.18300
C1170       C  0.00523364  0.46297420  0.28825469     0.10100
S1171       S  0.49727778  0.59809366  0.23786954    -0.33200
S1172       S  0.00858442  0.41076255  0.30345500    -0.33200
H1173       H  0.03963415  0.40334105  0.30103159     0.28100
H1174       H  0.46925877  0.61098154  0.24456171     0.28100
H1175       H  0.96546203  0.55301310  0.28629744     0.18700
H1176       H  0.55123965  0.46737649  0.28233828     0.18700
C1177       C  0.63068975  0.53609568  0.33615899    -0.07100
C1178       C  0.64123490  0.49622440  0.34565109    -0.18200
C1179       C  0.63916097  0.47953463  0.37413575     0.10100
C1180       C  0.62550422  0.50255569  0.39416038    -0.07000
C1181       C  0.61699253  0.54349577  0.38594601    -0.18300
C1182       C  0.61971469  0.56059122  0.35752258     0.10100
S1183       S  0.65470566  0.42838435  0.38332412    -0.33200
S1184       S  0.60869033  0.61378486  0.35010666    -0.33200
H1185       H  0.63310559  0.62333872  0.33604563     0.28100
H1186       H  0.67065604  0.43828690  0.41539684     0.28100
H1187       H  0.65017045  0.47695405  0.33018030     0.18700
H1188       H  0.60740929  0.56200719  0.40134147     0.18700
C1189       C  0.60919196  0.45578548  0.08323972    -0.07100
C1190       C  0.58631523  0.48466683  0.08559184    -0.18200
C1191       C  0.58239207  0.49551434  0.11483337     0.10100
C1192       C  0.60241521  0.47836077  0.14307475    -0.07000
C1193       C  0.62382058  0.44733930  0.14072638    -0.18300
C1194       C  0.62710325  0.43546202  0.11110542     0.10100
S1195       S  0.55259213  0.53343050  0.11462276    -0.33200
S1196       S  0.65610909  0.39666042  0.11083263    -0.33200
H1197       H  0.66633449  0.41438244  0.08636181     0.28100
H1198       H  0.54823670  0.52176399  0.14371089     0.28100
H1199       H  0.57130157  0.49925903  0.06431448     0.18700
H1200       H  0.63982067  0.43451254  0.16227840     0.18700
C1201       C  0.63128174  0.79384497  0.25440854    -0.07100
C1202       C  0.64758959  0.76942692  0.28029968    -0.18200
C1203       C  0.65177036  0.72693260  0.27662572     0.10100
C1204       C  0.63916921  0.70763685  0.24631961    -0.07000
C1205       C  0.62306144  0.73221229  0.22033688    -0.18300
C1206       C  0.61904099  0.77480771  0.22404255     0.10100
S1207       S  0.67503280  0.69958924  0.31120527    -0.33200
S1208       S  0.59889250  0.80345540  0.18897097    -0.33200
H1209       H  0.58853960  0.83550948  0.20485196     0.28100
H1210       H  0.68818458  0.67155756  0.29434022     0.28100
H1211       H  0.65871403  0.78410715  0.30337721     0.18700
H1212       H  0.61265757  0.71791879  0.19702796     0.18700
C1213       C  0.63101209  0.04976724  0.40711407    -0.07100
C1214       C  0.65553381  0.06537740  0.39505498    -0.18200
C1215       C  0.65842008  0.05081592  0.36594520     0.10100
C1216       C  0.63646160  0.01937718  0.34869224    -0.07000
C1217       C  0.61032847  0.00672608  0.35940453    -0.18300
C1218       C  0.60703439  0.02209965  0.38790780     0.10100
S1219       S  0.69202350  0.07176565  0.35401458    -0.33200
S1220       S  0.57222413  0.00425985  0.39910651    -0.33200
H1221       H  0.57172551  0.03904631  0.41826131     0.28100
H1222       H  0.68576179  0.05081641  0.32483484     0.28100
H1223       H  0.67408049  0.08668976  0.40952322     0.18700
H1224       H  0.59276764  0.98360876  0.34585065     0.18700
C1225       C  0.64182837  0.94975416  0.15971076    -0.07100
C1226       C  0.61245039  0.96175038  0.13828623    -0.18200
C1227       C  0.61067243  0.97403973  0.10741529     0.10100
C1228       C  0.63917986  0.97679090  0.09807671    -0.07000
C1229       C  0.66828833  0.96297440  0.11907657    -0.18300
C1230       C  0.66972786  0.94859161  0.14949101     0.10100
S1231       S  0.57182296  0.98896048  0.08195321    -0.33200
S1232       S  0.70783942  0.93183825  0.17600366    -0.33200
H1233       H  0.72577234  0.93553811  0.15436633     0.28100
H1234       H  0.57554169  0.96871905  0.05509543     0.28100
H1235       H  0.59096311  0.96275563  0.14597753     0.18700
H1236       H  0.69022285  0.96538569  0.11216462     0.18700
C1237       C  0.54703971  0.98761817  0.24918877    -0.07100
C1238       C  0.53107537  0.98360273  0.27247793    -0.18200
C1239       C  0.00370554  0.00674913  0.27364272     0.10100
C1240       C  0.99070364  0.03425219  0.24838221    -0.07000
C1241       C  0.50873960  0.04212839  0.22513680    -0.18300
C1242       C  0.53533984  0.01794445  0.22522860     0.10100
S1243       S  0.98578337  0.99910857  0.30515059    -0.33200
S1244       S  0.55173567  0.02661085  0.19276241    -0.33200
H1245       H  0.55074282  0.98423930  0.18474943     0.28100
H1246       H  0.97091234  0.03768048  0.30200943     0.28100
H1247       H  0.53995360  0.96224214  0.29180483     0.18700
H1248       H  0.49956781  0.06366579  0.20599314     0.18700
C1249       C  0.73609730  0.01689798  0.25583899    -0.07100
C1250       C  0.73264788  0.02987368  0.22480265    -0.18200
C1251       C  0.75772364  0.02532963  0.21157661     0.10100
C1252       C  0.78798076  0.01140804  0.23062425    -0.07000
C1253       C  0.79218450  0.00164490  0.26252742    -0.18300
C1254       C  0.76662061  0.00471129  0.27529563     0.10100
S1255       S  0.74875128  0.03393366  0.16953048    -0.33200
S1256       S  0.77336523  0.99012124  0.31597470    -0.33200
H1257       H  0.74929172  0.01583685  0.32023383     0.28100
H1258       H  0.77199941  0.00700605  0.16504251     0.28100
H1259       H  0.70881304  0.03741323  0.20926719     0.18700
H1260       H  0.81572507  0.99294453  0.27792974     0.18700
C1261       C  0.53316833  0.62005735  0.15514063    -0.07100
C1262       C  0.50792916  0.59701711  0.16160405    -0.18200
C1263       C  0.97058353  0.62022681  0.14672196     0.10100
C1264       C  0.96459844  0.62276350  0.11348862    -0.07000
C1265       C  0.99181187  0.62665666  0.10222569    -0.18300
C1266       C  0.52527313  0.64404880  0.12733255     0.10100
S1267       S  0.93828673  0.61676574  0.16438495    -0.33200
S1268       S  0.55525561  0.67491983  0.11603345    -0.33200
H1269       H  0.57839898  0.67825100  0.14627573     0.28100
H1270       H  0.92908348  0.57612093  0.15279992     0.28100
H1271       H  0.51349765  0.57701396  0.18182344     0.18700
H1272       H  0.98815079  0.62922786  0.07697355     0.18700
C1273       C  0.87751944  0.48711633  0.12087377    -0.07100
C1274       C  0.90832885  0.48245276  0.14275665    -0.18200
C1275       C  0.91196191  0.47243295  0.17447297     0.10100
C1276       C  0.88416071  0.46586707  0.18471451    -0.07000
C1277       C  0.85330058  0.46849569  0.16227641    -0.18300
C1278       C  0.84971650  0.47849809  0.13056257     0.10100
S1279       S  0.95273592  0.47303087  0.20129009    -0.33200
S1280       S  0.80897660  0.47963931  0.10346470    -0.33200
H1281       H  0.81746576  0.46916448  0.07615019     0.28100
H1282       H  0.94479125  0.49747013  0.22406216     0.28100
H1283       H  0.92976326  0.48986557  0.13576851     0.18700
H1284       H  0.83178047  0.46260954  0.16946528     0.18700
C1285       C  0.87036815  0.50456586  0.36964276    -0.07100
C1286       C  0.89600577  0.53200147  0.38547976    -0.18200
C1287       C  0.89853133  0.54870590  0.41553657     0.10100
C1288       C  0.87541291  0.53666578  0.43115146    -0.07000
C1289       C  0.84866646  0.51155836  0.41422771    -0.18300
C1290       C  0.84533745  0.49629248  0.38361189     0.10100
S1291       S  0.93254500  0.58404050  0.43244744    -0.33200
S1292       S  0.80856170  0.46674264  0.36308967    -0.33200
H1293       H  0.79117684  0.47493185  0.38454729     0.28100
H1294       H  0.91312052  0.61501759  0.43892994     0.28100
H1295       H  0.91484477  0.53968720  0.37478317     0.18700
H1296       H  0.83049468  0.50292022  0.42531953     0.18700
C1297       C  0.77379946  0.52822294  0.01266011    -0.07100
C1298       C  0.75662045  0.53081069  0.03480580    -0.18200
C1299       C  0.72748971  0.50765123  0.03089253     0.10100
C1300       C  0.71612455  0.48007945  0.50375135    -0.07000
C1301       C  0.73311402  0.47871158  0.48132797    -0.18300
C1302       C  0.76256377  0.50134414  0.48591267     0.10100
S1303       S  0.71047710  0.51030555  0.06336927    -0.33200
S1304       S  0.78195136  0.49649754  0.45548197    -0.33200
H1305       H  0.79601653  0.53676449  0.45991416     0.28100
H1306       H  0.70135410  0.46796268  0.06165350     0.28100
H1307       H  0.76719185  0.54869825  0.05655830     0.18700
H1308       H  0.72296010  0.46085210  0.45951273     0.18700
C1309       C  0.97188144  0.51325797  0.01956882    -0.07100
C1310       C  0.97378621  0.47149995  0.01262168    -0.18200
C1311       C  0.49049292  0.46659413  0.98152110     0.10100
C1312       C  0.51814279  0.49328514  0.48559438    -0.07000
C1313       C  0.51518784  0.53542220  0.49079755    -0.18300
C1314       C  0.99150388  0.54317281  0.00981603     0.10100
S1315       S  0.48669520  0.41529329  0.96416545    -0.33200
S1316       S  0.99025027  0.60404431  0.51418388    -0.33200
H1317       H  0.00608598  0.61108052  0.99452493     0.28100
H1318       H  0.46717290  0.39693110  0.48943669     0.28100
H1319       H  0.95801883  0.44882451  0.01905802     0.18700
H1320       H  0.53307840  0.55737051  0.48714907     0.18700
C1321       C  0.79375218  0.88685372  0.39611771    -0.07100
C1322       C  0.77462531  0.92192286  0.39157833    -0.18200
C1323       C  0.74466074  0.92330396  0.36812644     0.10100
C1324       C  0.73347635  0.88952323  0.34685754    -0.07000
C1325       C  0.75322361  0.85484222  0.35003737    -0.18300
C1326       C  0.78286186  0.85272486  0.37493973     0.10100
S1327       S  0.72189154  0.96929345  0.36713987    -0.33200
S1328       S  0.80516056  0.80591250  0.37869349    -0.33200
H1329       H  0.81660812  0.80709615  0.41211455     0.28100
H1330       H  0.70989719  0.97163505  0.33390830     0.28100
H1331       H  0.78337856  0.94904632  0.40668053     0.18700
H1332       H  0.74542820  0.82923292  0.33318295     0.18700
C1333       C  0.89046267  0.78887594  0.49702976    -0.07100
C1334       C  0.89086408  0.77668497  0.02539031    -0.18200
C1335       C  0.88264215  0.73680847  0.03327185     0.10100
C1336       C  0.87472691  0.70477568  0.00981008    -0.07000
C1337       C  0.87486522  0.71738504  0.48096787    -0.18300
C1338       C  0.88344917  0.75729433  0.47360349     0.10100
S1339       S  0.88310529  0.72934082  0.07376724    -0.33200
S1340       S  0.88332519  0.76655979  0.43335108    -0.33200
H1341       H  0.90634667  0.79961361  0.44095806     0.28100
H1342       H  0.85063759  0.71438314  0.06485894     0.28100
H1343       H  0.89497787  0.80139540  0.04305516     0.18700
H1344       H  0.86962900  0.69364829  0.46248332     0.18700
C1345       C  0.54332844  0.02078488  0.00372085    -0.07100
C1346       C  0.52218876  0.03797246  0.01843483    -0.18200
C1347       C  0.99372163  0.01312470  0.02050922     0.10100
C1348       C  0.98184631  0.98174940  0.49974830    -0.07000
C1349       C  0.50431477  0.96409352  0.48608550    -0.18300
C1350       C  0.53514460  0.98196679  0.48939141     0.10100
S1351       S  0.97209713  0.03207851  0.04642995    -0.33200
S1352       S  0.56312678  0.95222840  0.47544668    -0.33200
H1353       H  0.54408081  0.91537884  0.46767666     0.28100
H1354       H  0.96310967  0.99195185  0.05326793     0.28100
H1355       H  0.52950353  0.06628810  0.03241699     0.18700
H1356       H  0.49718534  0.93510855  0.47306105     0.18700
C1357       C  0.72522092  0.98161436  0.99927631    -0.07100
C1358       C  0.75285134  0.99329345  0.02421809    -0.18200
C1359       C  0.78286055  0.99725870  0.01910195     0.10100
C1360       C  0.78431041  0.98876115  0.48901439    -0.07000
C1361       C  0.75713628  0.97208784  0.46562983    -0.18300
C1362       C  0.72758141  0.96662564  0.47160602     0.10100
S1363       S  0.81711694  0.01430099  0.05206998    -0.33200
S1364       S  0.69287165  0.94776592  0.43963625    -0.33200
H1365       H  0.67317403  0.93833378  0.45895735     0.28100
H1366       H  0.83555811  0.03086063  0.03346374     0.28100
H1367       H  0.75050874  0.00365958  0.04681824     0.18700
H1368       H  0.75923216  0.96124596  0.44313256     0.18700
C1369       C  0.89269394  0.94425687  0.08209200    -0.07100
C1370       C  0.92019886  0.96700055  0.10004494    -0.18200
C1371       C  0.92222985  0.98404670  0.12992062     0.10100
C1372       C  0.89531470  0.98006794  0.14191737    -0.07000
C1373       C  0.86886689  0.95414728  0.12516025    -0.18300
C1374       C  0.86757733  0.93569852  0.09579144     0.10100
S1375       S  0.95955595  0.01097229  0.15198115    -0.33200
S1376       S  0.83174089  0.90500605  0.07543630    -0.33200
H1377       H  0.84909526  0.87285191  0.06733564     0.28100
H1378       H  0.97832646  0.99922777  0.13255636     0.28100
H1379       H  0.93971583  0.97271143  0.09007252     0.18700
H1380       H  0.84837739  0.94976412  0.13416564     0.18700
C1381       C  0.88349803  0.03460935  0.32599221    -0.07100
C1382       C  0.90846963  0.00927290  0.34332747    -0.18200
C1383       C  0.91005117  0.99510210  0.37366730     0.10100
C1384       C  0.88519867  0.00430217  0.38720164    -0.07000
C1385       C  0.86133595  0.03174158  0.37108798    -0.18300
C1386       C  0.86065483  0.04774687  0.34122751     0.10100
S1387       S  0.94514115  0.96609497  0.39423967    -0.33200
S1388       S  0.83000174  0.08477285  0.32430546    -0.33200
H1389       H  0.85185057  0.11282661  0.31658911     0.28100
H1390       H  0.94773244  0.98280240  0.42442730     0.28100
H1391       H  0.92705291  0.99997081  0.33314475     0.18700
H1392       H  0.84271460  0.04020989  0.38151651     0.18700
O1393       O  0.85127563  0.87746695  0.92358795    -0.86300
O1394       O  0.88984145  0.94475230  0.91823200    -0.83400
C1395       C  0.88435981  0.98281503  0.91685676     0.97100
O1396       O  0.87803507  0.00139837  0.93947236    -0.83400
O1397       O  0.83213638  0.98953380  0.97030070    -0.86000
C1398       C  0.81676938  0.97419094  0.98758663     1.01700
O1399       O  0.82826104  0.94498660  0.00488882    -0.78800
O1400       O  0.81742911  0.89862202  0.94946692    -0.79000
C1401       C  0.82256782  0.88626481  0.92418907     1.01600
O1402       O  0.90786017  0.85327213  0.98011941    -0.86300
O1403       O  0.94026754  0.92715171  0.97458267    -0.83400
C1404       C  0.94863474  0.96116467  0.99030483     0.97200
O1405       O  0.92784344  0.98391356  0.99591011    -0.83400
O1406       O  0.88427660  0.97536269  0.53041434    -0.86000
C1407       C  0.88670395  0.94294569  0.54781576     1.01600
O1408       O  0.88068671  0.90665964  0.53539671    -0.78800
O1409       O  0.85862397  0.84579718  0.48436867    -0.79000
C1410       C  0.88658794  0.82954544  0.98524079     1.01600
Cr1411     Cr  0.89566108  0.90221287  0.95124680     1.93700
Cr1412     Cr  0.88031334  0.98227586  0.98351120     1.93200
Cr1413     Cr  0.84945683  0.89950908  0.99143941     1.39100
O1414       O  0.87618196  0.92832273  0.97536425    -1.24100
O1415       O  0.92838848  0.63493859  0.56206866    -0.86300
O1416       O  0.94757568  0.56397949  0.54342274    -0.83400
C1417       C  0.94703739  0.52984290  0.53007159     0.97100
O1418       O  0.92132791  0.50749787  0.52204453    -0.83400
O1419       O  0.89313816  0.49930916  0.57160807    -0.86000
C1420       C  0.87797673  0.50981483  0.59069296     1.01700
O1421       O  0.86017800  0.54082203  0.58501107    -0.78800
O1422       O  0.90881527  0.60160170  0.59497001    -0.79000
C1423       C  0.93240407  0.62128541  0.58968125     1.01600
O1424       O  0.87807849  0.63691309  0.50137033    -0.86300
O1425       O  0.90282487  0.56486998  0.98176880    -0.83400
C1426       C  0.87912785  0.54222845  0.96595598     0.97200
O1427       O  0.86025540  0.52545925  0.97971526    -0.83400
O1428       O  0.83124891  0.51401080  0.52556166    -0.86000
C1429       C  0.81065360  0.54179923  0.52316813     1.01600
O1430       O  0.81994642  0.57942665  0.53117615    -0.78800
O1431       O  0.86621531  0.65046053  0.54462588    -0.79000
C1432       C  0.87066630  0.66277167  0.51895142     1.01600
Cr1433     Cr  0.91195298  0.59935303  0.52282362     1.93700
Cr1434     Cr  0.87740557  0.51607115  0.52590138     1.93200
Cr1435     Cr  0.86489096  0.59219000  0.56188878     1.39100
O1436       O  0.88410867  0.56916606  0.53626301    -1.24100
O1437       O  0.67529500  0.88760548  0.81899912    -0.86300
O1438       O  0.64913921  0.96154765  0.82708569    -0.83400
C1439       C  0.64187748  0.99889616  0.82241838     0.97100
O1440       O  0.63551403  0.01390134  0.79489174    -0.83400
O1441       O  0.68813569  0.01060817  0.77106831    -0.86000
C1442       C  0.70776952  0.99548748  0.75847437     1.01700
O1443       O  0.70216677  0.96078499  0.74473634    -0.78800
O1444       O  0.70984505  0.91065758  0.79469874    -0.79000
C1445       C  0.70435051  0.89538913  0.81871897     1.01600
O1446       O  0.61561147  0.86705061  0.76682908    -0.86300
O1447       O  0.58980745  0.94533966  0.77816271    -0.83400
C1448       C  0.57838654  0.96945060  0.75476881     0.97200
O1449       O  0.59524706  0.97850421  0.73694336    -0.83400
O1450       O  0.64489996  0.98086493  0.71021211    -0.86000
C1451       C  0.64406334  0.94758940  0.69438678     1.01600
O1452       O  0.64856545  0.91307174  0.70815007    -0.78800
O1453       O  0.66153618  0.85597447  0.75758213    -0.79000
C1454       C  0.63462778  0.84277633  0.75935300     1.01600
Cr1455     Cr  0.63350384  0.91672220  0.79505571     1.93700
Cr1456     Cr  0.64182174  0.99176144  0.75441014     1.93200
Cr1457     Cr  0.67793039  0.91219048  0.75246252     1.39100
O1458       O  0.65070950  0.94016106  0.76733701    -1.24100
O1459       O  0.57092170  0.63477940  0.70512000    -0.86300
O1460       O  0.55217200  0.56658115  0.73018271    -0.83400
C1461       C  0.55269134  0.53320990  0.74436836     0.97100
O1462       O  0.57694513  0.51076973  0.74926866    -0.83400
O1463       O  0.59761064  0.49775769  0.69503873    -0.86000
C1464       C  0.61086750  0.50617779  0.67380320     1.01700
O1465       O  0.63000518  0.53716364  0.67696818    -0.78800
O1466       O  0.58658223  0.60012805  0.67004867    -0.79000
C1467       C  0.56508409  0.62071241  0.67708102     1.01600
O1468       O  0.62654651  0.64400166  0.76144081    -0.86300
O1469       O  0.60344652  0.57781520  0.78837074    -0.83400
C1470       C  0.62465804  0.55210944  0.80179629     0.97200
O1471       O  0.63974850  0.53313334  0.78565273    -0.83400
O1472       O  0.66224492  0.51362249  0.73479350    -0.86000
C1473       C  0.68468751  0.53971685  0.73527416     1.01600
O1474       O  0.67755981  0.57739969  0.72770922    -0.78800
O1475       O  0.63555779  0.65022436  0.71568140    -0.79000
C1476       C  0.63427186  0.66625827  0.74153944     1.01600
Cr1477     Cr  0.59048648  0.60339046  0.74510470     1.93700
Cr1478     Cr  0.61861335  0.51806430  0.73988702     1.93200
Cr1479     Cr  0.63149229  0.59043158  0.70012370     1.44700
O1480       O  0.61405602  0.57078724  0.72888163    -1.24100
O1481       O  0.89980497  0.39217642  0.83987352    -0.86300
O1482       O  0.85403564  0.45202916  0.82932991    -0.83400
C1483       C  0.87222326  0.48326426  0.83968369     0.97100
O1484       O  0.89085500  0.49674106  0.82442640    -0.83400
O1485       O  0.92698378  0.49520381  0.78130631    -0.86000
C1486       C  0.95161884  0.47393102  0.79317874     1.01700
O1487       O  0.94815527  0.43752380  0.80088954    -0.78800
O1488       O  0.92349008  0.36328222  0.80904552    -0.79000
C1489       C  0.92459584  0.37489665  0.83659085     1.01600
O1490       O  0.85990497  0.34822499  0.78272668    -0.86300
O1491       O  0.81708146  0.42007434  0.77024758    -0.83400
C1492       C  0.81054172  0.45852530  0.76544083     0.97200
O1493       O  0.83333575  0.48561383  0.77181645    -0.83400
O1494       O  0.86985864  0.47607337  0.73080439    -0.86000
C1495       C  0.88922618  0.45960872  0.71815909     1.01600
O1496       O  0.91096650  0.43603847  0.73408094    -0.78800
O1497       O  0.88113547  0.36386986  0.74515662    -0.79000
C1498       C  0.86875790  0.33727668  0.75901729     1.01600
Cr1499     Cr  0.85917481  0.40412090  0.80366526     1.93700
Cr1500     Cr  0.88056626  0.48423353  0.77774635     1.93200
Cr1501     Cr  0.91353585  0.40251701  0.77287324     1.39100
O1502       O  0.88356615  0.43014499  0.78378157    -1.24100
O1503       O  0.83810857  0.13005001  0.69467862    -0.86300
O1504       O  0.81997158  0.05618580  0.71062342    -0.83400
C1505       C  0.81863922  0.02252498  0.72374345     0.97100
O1506       O  0.84427286  0.00302913  0.73580069    -0.83400
O1507       O  0.87772611  0.99669691  0.68915235    -0.86000
C1508       C  0.89432551  0.00854751  0.67133042     1.01700
O1509       O  0.91012884  0.04267708  0.67716933    -0.78800
O1510       O  0.86155184  0.09898901  0.66437137    -0.79000
C1511       C  0.83699924  0.11684945  0.66739045     1.01600
O1512       O  0.88398285  0.13928818  0.75730766    -0.86300
O1513       O  0.85952923  0.06816734  0.77654480    -0.83400
C1514       C  0.88279799  0.04747077  0.79354986     0.97200
O1515       O  0.90248238  0.03184444  0.78088357    -0.83400
O1516       O  0.93651864  0.01988467  0.73803079    -0.86000
C1517       C  0.95683336  0.04972818  0.74068782     1.01600
O1518       O  0.94735601  0.08620605  0.73226177    -0.78800
O1519       O  0.90070839  0.15222484  0.71635791    -0.79000
C1520       C  0.89388513  0.16493024  0.74084685     1.01600
Cr1521     Cr  0.85275826  0.09634810  0.73425855     1.93700
Cr1522     Cr  0.88962113  0.01674454  0.73473163     1.93200
Cr1523     Cr  0.90365183  0.09389610  0.69959659     1.39100
O1524       O  0.88284476  0.06922134  0.72364096    -1.24100
O1525       O  0.71312461  0.08439089  0.54066586    -0.86300
O1526       O  0.69386911  0.03441255  0.48758212    -0.83400
C1527       C  0.69674731  0.00023101  0.50131000     0.97100
O1528       O  0.67665183  0.98726033  0.51472693    -0.83400
O1529       O  0.62780807  0.99073750  0.54318209    -0.86000
C1530       C  0.64129582  0.00325584  0.57153082     1.01700
O1531       O  0.65467780  0.03876739  0.57687254    -0.78800
O1532       O  0.68473203  0.11190577  0.56863802    -0.79000
C1533       C  0.71210500  0.10172004  0.56604301     1.01600
O1534       O  0.66823167  0.14346011  0.50827540    -0.86300
O1535       O  0.64428175  0.09067123  0.95693644    -0.83400
C1536       C  0.63500489  0.05690449  0.94162847     0.97200
O1537       O  0.63373499  0.02356984  0.95637867    -0.83400
O1538       O  0.59000295  0.03369183  0.48777766    -0.86000
C1539       C  0.57669748  0.04120852  0.50855485     1.01600
O1540       O  0.59280312  0.06079246  0.53398431    -0.78800
O1541       O  0.62419499  0.13573117  0.52237799    -0.79000
C1542       C  0.64390916  0.15867894  0.51348114     1.01600
Cr1543     Cr  0.67785237  0.08594205  0.49965894     1.93700
Cr1544     Cr  0.63341944  0.01179175  0.50183770     1.93200
Cr1545     Cr  0.63956868  0.08542001  0.54783726     1.39100
O1546       O  0.65010834  0.06126753  0.51646484    -1.24100
O1547       O  0.58278450  0.37401898  0.92807956    -0.86300
O1548       O  0.61177204  0.44486473  0.91906764    -0.83400
C1549       C  0.61829389  0.48292017  0.92102388     0.97100
O1550       O  0.62108579  0.50238517  0.94670602    -0.83400
O1551       O  0.56610028  0.49370253  0.96868309    -0.86000
C1552       C  0.54688916  0.47779549  0.98220497     1.01700
O1553       O  0.55567668  0.44863058  0.00103606    -0.78800
O1554       O  0.54976158  0.39324716  0.95449889    -0.79000
C1555       C  0.55412869  0.38094262  0.92910612     1.01600
O1556       O  0.64184968  0.35726690  0.98247703    -0.86300
O1557       O  0.66963583  0.43525643  0.97287088    -0.83400
C1558       C  0.67975384  0.46352253  0.99454596     0.97200
O1559       O  0.66048216  0.47953075  0.00727292    -0.83400
O1560       O  0.61459981  0.47991574  0.53531783    -0.86000
C1561       C  0.61727185  0.44921535  0.55395022     1.01600
O1562       O  0.61577406  0.41251564  0.54312032    -0.78800
O1563       O  0.59856031  0.34781336  0.49687140    -0.79000
C1564       C  0.62278449  0.33322240  0.99116609     1.01600
Cr1565     Cr  0.62544336  0.40459565  0.95329884     1.93700
Cr1566     Cr  0.61357617  0.48405661  0.98786638     1.93200
Cr1567     Cr  0.58116797  0.40186831  0.99631738     1.39100
O1568       O  0.60754679  0.42993609  0.97931818    -1.24100
C1569       C  0.63936116  0.20377239  0.50918843    -0.07100
C1570       C  0.60725639  0.21787142  0.99788096    -0.18200
C1571       C  0.60187034  0.25922407  0.98975918     0.10100
C1572       C  0.62820214  0.28871550  0.49622475    -0.07000
C1573       C  0.65981550  0.27424063  0.50522424    -0.18300
C1574       C  0.66576384  0.23245096  0.51208396     0.10100
S1575       S  0.56049925  0.27154639  0.96876337    -0.33200
S1576       S  0.70782762  0.21863756  0.52598455    -0.33200
H1577       H  0.70392627  0.19365561  0.55063299     0.28100
H1578       H  0.56945117  0.29732703  0.94720811     0.28100
H1579       H  0.58689407  0.19572401  0.99160848     0.18700
H1580       H  0.68016806  0.29586640  0.50802173     0.18700
C1581       C  0.80577886  0.11915785  0.64034194    -0.07100
C1582       C  0.77645240  0.12414616  0.64751611    -0.18200
C1583       C  0.74582833  0.11957434  0.62421075     0.10100
C1584       C  0.74368526  0.11043051  0.59214951    -0.07000
C1585       C  0.77313908  0.10833031  0.58469149    -0.18300
C1586       C  0.80368762  0.11265442  0.60807988     0.10100
S1587       S  0.71067776  0.12338803  0.63768375    -0.33200
S1588       S  0.83921320  0.11181584  0.59508714    -0.33200
H1589       H  0.84805925  0.07265443  0.60815325     0.28100
H1590       H  0.69746013  0.08449188  0.62482444     0.28100
H1591       H  0.77716013  0.12939903  0.67197924     0.18700
H1592       H  0.77253322  0.10281237  0.56029071     0.18700
C1593       C  0.95630734  0.37234503  0.86324285    -0.07100
C1594       C  0.98247151  0.35070758  0.85821578    -0.18200
C1595       C  0.51146328  0.34569047  0.88018544     0.10100
C1596       C  0.52425247  0.37998941  0.90073575    -0.07000
C1597       C  0.50460756  0.41444935  0.89833352    -0.18300
C1598       C  0.96320000  0.39665032  0.89135437     0.10100
S1599       S  0.53434270  0.30023593  0.87981521    -0.33200
S1600       S  0.93322080  0.42684913  0.90118910    -0.33200
H1601       H  0.94340104  0.46304106  0.88886927     0.28100
H1602       H  0.56408662  0.32184806  0.88439018     0.28100
H1603       H  0.97838949  0.33264409  0.83652319     0.18700
H1604       H  0.51414342  0.44160104  0.91321136     0.18700
C1605       C  0.87187393  0.29250987  0.75263510    -0.07100
C1606       C  0.88055397  0.26619012  0.77898205    -0.18200
C1607       C  0.89020754  0.22550625  0.77646187     0.10100
C1608       C  0.89102454  0.20998287  0.74667272    -0.07000
C1609       C  0.88270066  0.23646182  0.72037574    -0.18300
C1610       C  0.87291578  0.27707607  0.72293825     0.10100
S1611       S  0.90298689  0.19470539  0.81198431    -0.33200
S1612       S  0.86084944  0.30701812  0.68713061    -0.33200
H1613       H  0.83732785  0.32931381  0.69582214     0.28100
H1614       H  0.89247473  0.22129602  0.83191952     0.28100
H1615       H  0.88127313  0.27820742  0.80212902     0.18700
H1616       H  0.88221850  0.22483685  0.69716595     0.18700
C1617       C  0.77679960  0.47562904  0.75446422    -0.07100
C1618       C  0.77260014  0.51422978  0.73865633    -0.18200
C1619       C  0.74418130  0.53730877  0.73349115     0.10100
C1620       C  0.71830256  0.52190248  0.74385601    -0.07000
C1621       C  0.72274906  0.48344130  0.75984323    -0.18300
C1622       C  0.75095059  0.46034794  0.76479747     0.10100
S1623       S  0.74237677  0.58571424  0.71321901    -0.33200
S1624       S  0.75298350  0.41254549  0.78588028    -0.33200
H1625       H  0.76107678  0.38944641  0.76244180     0.28100
H1626       H  0.73374080  0.60807675  0.73668716     0.28100
H1627       H  0.79220301  0.52732404  0.73088899     0.18700
H1628       H  0.70365312  0.47049919  0.76842109     0.18700
C1629       C  0.98320272  0.48903647  0.79138401    -0.07100
C1630       C  0.98607289  0.53106194  0.78471396    -0.18200
C1631       C  0.50619228  0.55192077  0.76512887     0.10100
C1632       C  0.52816653  0.52284109  0.76015830    -0.07000
C1633       C  0.53029540  0.48428511  0.77512059    -0.18300
C1634       C  0.00612141  0.46117316  0.78692456     0.10100
S1635       S  0.50638809  0.60553501  0.75352218    -0.33200
S1636       S  0.00778485  0.40780604  0.79958614    -0.33200
H1637       H  0.03730367  0.39844897  0.79433017     0.28100
H1638       H  0.48393841  0.61954707  0.76824027     0.28100
H1639       H  0.96923536  0.55253031  0.78934491     0.18700
H1640       H  0.54900147  0.46325436  0.77417841     0.18700
C1641       C  0.62826268  0.53983461  0.83540211    -0.07100
C1642       C  0.64136032  0.50115638  0.84526194    -0.18200
C1643       C  0.63950418  0.48314889  0.87340179     0.10100
C1644       C  0.62375644  0.50363690  0.89283885    -0.07000
C1645       C  0.61231229  0.54341485  0.88419698    -0.18300
C1646       C  0.61451023  0.56177587  0.85600252     0.10100
S1647       S  0.65795755  0.43361373  0.88289270    -0.33200
S1648       S  0.59894885  0.61302887  0.84783195    -0.33200
H1649       H  0.62378429  0.62718264  0.83564457     0.28100
H1650       H  0.67160255  0.44317545  0.91536933     0.28100
H1651       H  0.65222858  0.48373426  0.83031903     0.18700
H1652       H  0.60079596  0.55991632  0.89905619     0.18700
C1653       C  0.61402117  0.45713080  0.58593650    -0.07100
C1654       C  0.58824978  0.48200704  0.58714731    -0.18200
C1655       C  0.58368026  0.49347647  0.61598048     0.10100
C1656       C  0.60568541  0.48069701  0.64478530    -0.07000
C1657       C  0.63024393  0.45357070  0.64370320    -0.18300
C1658       C  0.63449431  0.44130015  0.61461443     0.10100
S1659       S  0.55081214  0.52732268  0.61445368    -0.33200
S1660       S  0.66780810  0.40823772  0.61617335    -0.33200
H1661       H  0.67242715  0.42054120  0.58741885     0.28100
H1662       H  0.54831889  0.51764452  0.64461991     0.28100
H1663       H  0.57167141  0.49335295  0.56528995     0.18700
H1664       H  0.64779417  0.44446294  0.66575901     0.18700
C1665       C  0.62854811  0.79759342  0.75557653    -0.07100
C1666       C  0.64696975  0.77323620  0.78050346    -0.18200
C1667       C  0.65094465  0.73094402  0.77613910     0.10100
C1668       C  0.63595810  0.71189471  0.74617970    -0.07000
C1669       C  0.61739401  0.73623654  0.72119313    -0.18300
C1670       C  0.61356362  0.77869565  0.72556758     0.10100
S1671       S  0.67704473  0.70353552  0.80916376    -0.33200
S1672       S  0.59037446  0.80740046  0.69172146    -0.33200
H1673       H  0.58181633  0.83914590  0.70922987     0.28100
H1674       H  0.68795819  0.67548540  0.79047574     0.28100
H1675       H  0.65997965  0.78788603  0.80316232     0.18700
H1676       H  0.60509147  0.72186465  0.69825119     0.18700
C1677       C  0.63068982  0.05350783  0.90705740    -0.07100
C1678       C  0.65607881  0.06817427  0.89582912    -0.18200
C1679       C  0.65925875  0.05361079  0.86685297     0.10100
C1680       C  0.63689093  0.02309321  0.84899614    -0.07000
C1681       C  0.61010794  0.01122793  0.85893240    -0.18300
C1682       C  0.60647758  0.02658604  0.88729166     0.10100
S1683       S  0.69390406  0.07236596  0.85576802    -0.33200
S1684       S  0.57113897  0.00922065  0.89777998    -0.33200
H1685       H  0.57098779  0.04355696  0.91747918     0.28100
H1686       H  0.68078423  0.06440909  0.82300055     0.28100
H1687       H  0.67496531  0.08861781  0.91082814     0.18700
H1688       H  0.59239116  0.98856631  0.84499154     0.18700
C1689       C  0.64186368  0.95081371  0.66041524    -0.07100
C1690       C  0.61245703  0.96165828  0.63846097    -0.18200
C1691       C  0.61102407  0.97373146  0.60763712     0.10100
C1692       C  0.63990577  0.97803154  0.59908577    -0.07000
C1693       C  0.66907176  0.96507646  0.62054243    -0.18300
C1694       C  0.67009649  0.95018030  0.65070969     0.10100
S1695       S  0.57200945  0.98625032  0.58112682    -0.33200
S1696       S  0.70787529  0.93267006  0.67733791    -0.33200
H1697       H  0.72571698  0.93502571  0.65555139     0.28100
H1698       H  0.57671188  0.96477556  0.55520014     0.28100
H1699       H  0.59064135  0.96180278  0.64565015     0.18700
H1700       H  0.69123982  0.96815789  0.61408203     0.18700
C1701       C  0.54717675  0.99187263  0.75061651    -0.07100
C1702       C  0.53247371  0.99015152  0.77500378    -0.18200
C1703       C  0.00443352  0.01124155  0.77571681     0.10100
C1704       C  0.99157352  0.03836385  0.75014245    -0.07000
C1705       C  0.50811765  0.04497989  0.72542576    -0.18300
C1706       C  0.53440429  0.02022027  0.72547172     0.10100
S1707       S  0.98658577  0.00485940  0.80739295    -0.33200
S1708       S  0.54875027  0.02500485  0.69132957    -0.33200
H1709       H  0.54857906  0.98192686  0.68619804     0.28100
H1710       H  0.97186632  0.04355838  0.80366551     0.28100
H1711       H  0.54216021  0.97026047  0.79513572     0.18700
H1712       H  0.49816210  0.06510194  0.70551699     0.18700
C1713       C  0.73591079  0.01797577  0.75524396    -0.07100
C1714       C  0.73287658  0.02848299  0.72374223    -0.18200
C1715       C  0.75881944  0.02440356  0.71170571     0.10100
C1716       C  0.78924394  0.01333809  0.73219722    -0.07000
C1717       C  0.79289169  0.00584639  0.76434529    -0.18300
C1718       C  0.76653359  0.00838192  0.77602893     0.10100
S1719       S  0.75106917  0.03003982  0.66947252    -0.33200
S1720       S  0.77265712  0.99682571  0.81717830    -0.33200
H1721       H  0.74727424  0.02161583  0.81955943     0.28100
H1722       H  0.77606160  0.00448983  0.66717093     0.28100
H1723       H  0.70903339  0.03391539  0.70726582     0.18700
H1724       H  0.81654973  0.99940231  0.78069211     0.18700
C1725       C  0.53183088  0.62605240  0.65380437    -0.07100
C1726       C  0.50468336  0.62083133  0.66489142    -0.18200
C1727       C  0.97145294  0.61964054  0.64699980     0.10100
C1728       C  0.96566806  0.62538561  0.61401564    -0.07000
C1729       C  0.99303003  0.63148007  0.60317340    -0.18300
C1730       C  0.52590096  0.63322327  0.62102661     0.10100
S1731       S  0.93836059  0.61337985  0.66361700    -0.33200
S1732       S  0.55822996  0.64371325  0.60409692    -0.33200
H1733       H  0.57895867  0.66429358  0.63122014     0.28100
H1734       H  0.95609356  0.59239716  0.69098801     0.28100
H1735       H  0.50852104  0.61567586  0.68989116     0.18700
H1736       H  0.98949230  0.63620095  0.57811867     0.18700
C1737       C  0.88073110  0.48752383  0.62048611    -0.07100
C1738       C  0.91152025  0.48426575  0.64271464    -0.18200
C1739       C  0.91498626  0.47523195  0.67457647     0.10100
C1740       C  0.88707688  0.46839390  0.68459405    -0.07000
C1741       C  0.85633329  0.46934837  0.66183437    -0.18300
C1742       C  0.85290465  0.47827807  0.62999847     0.10100
S1743       S  0.95555951  0.47744302  0.70178537    -0.33200
S1744       S  0.81227371  0.47771800  0.60257303    -0.33200
H1745       H  0.82132630  0.46747944  0.57553450     0.28100
H1746       H  0.94678911  0.50126498  0.72438488     0.28100
H1747       H  0.93295433  0.49221025  0.63586714     0.18700
H1748       H  0.83478072  0.46302217  0.66888222     0.18700
C1749       C  0.87111061  0.50277091  0.86998323    -0.07100
C1750       C  0.89575065  0.53137416  0.88591703    -0.18200
C1751       C  0.89774997  0.54721487  0.91606800     0.10100
C1752       C  0.87531140  0.53286237  0.93181405    -0.07000
C1753       C  0.84979337  0.50588944  0.91513876    -0.18300
C1754       C  0.84679488  0.49153529  0.88438276     0.10100
S1755       S  0.92992456  0.58522114  0.93264481    -0.33200
S1756       S  0.81135964  0.45905720  0.86456409    -0.33200
H1757       H  0.79408373  0.46482104  0.88647543     0.28100
H1758       H  0.90915055  0.61359386  0.94011563     0.28100
H1759       H  0.91400113  0.54114045  0.87502208     0.18700
H1760       H  0.83231995  0.49513738  0.92653514     0.18700
C1761       C  0.77586568  0.52697800  0.51333723    -0.07100
C1762       C  0.75903645  0.52836967  0.53580362    -0.18200
C1763       C  0.73021691  0.50460235  0.53189331     0.10100
C1764       C  0.71380900  0.48203433  0.00328043    -0.07000
C1765       C  0.73103386  0.47990361  0.98105047    -0.18300
C1766       C  0.76046538  0.50239859  0.98541161     0.10100
S1767       S  0.71416464  0.50481292  0.56507751    -0.33200
S1768       S  0.77987847  0.49707384  0.95496976    -0.33200
H1769       H  0.79460634  0.53698015  0.95955230     0.28100
H1770       H  0.70452023  0.46264520  0.56150860     0.28100
H1771       H  0.76970396  0.54574041  0.55779499     0.18700
H1772       H  0.72113616  0.46140299  0.95954218     0.18700
C1773       C  0.97350805  0.51898116  0.51780798    -0.07100
C1774       C  0.97481507  0.47743021  0.50995694    -0.18200
C1775       C  0.49511263  0.46415462  0.49077169     0.10100
C1776       C  0.51599349  0.49481086  0.98132635    -0.07000
C1777       C  0.51731348  0.53433189  0.99469054    -0.18300
C1778       C  0.99358859  0.54897902  0.50876675     0.10100
S1779       S  0.49648470  0.40902689  0.48398042    -0.33200
S1780       S  0.98775474  0.59828017  0.01438092    -0.33200
H1781       H  0.01137510  0.61738267  0.49725226     0.28100
H1782       H  0.45450855  0.40650463  0.96372218     0.28100
H1783       H  0.95870459  0.45472726  0.51583486     0.18700
H1784       H  0.53727603  0.55548102  0.99487997     0.18700
C1785       C  0.79377901  0.88591895  0.89525285    -0.07100
C1786       C  0.77541614  0.92165512  0.89098764    -0.18200
C1787       C  0.74516140  0.92372233  0.86807257     0.10100
C1788       C  0.73286307  0.88996061  0.84708394    -0.07000
C1789       C  0.75173869  0.85444957  0.85006514    -0.18300
C1790       C  0.78169534  0.85165183  0.87448025     0.10100
S1791       S  0.72337029  0.97048406  0.86746731    -0.33200
S1792       S  0.80287113  0.80389662  0.87807078    -0.33200
H1793       H  0.81652237  0.80611527  0.91131783     0.28100
H1794       H  0.71083502  0.97295867  0.83428199     0.28100
H1795       H  0.78496027  0.94866240  0.90594866     0.18700
H1796       H  0.74305337  0.82878906  0.83341372     0.18700
C1797       C  0.89139739  0.78608868  0.99458989    -0.07100
C1798       C  0.88952806  0.77923649  0.52768452    -0.18200
C1799       C  0.88120869  0.73922951  0.53527498     0.10100
C1800       C  0.87352314  0.70743902  0.51162302    -0.07000
C1801       C  0.87609220  0.71429842  0.97907589    -0.18300
C1802       C  0.88442977  0.75422157  0.97135905     0.10100
S1803       S  0.88115597  0.73129154  0.57557776    -0.33200
S1804       S  0.88404757  0.76313243  0.93098296    -0.33200
H1805       H  0.90665819  0.79665106  0.93825855     0.28100
H1806       H  0.84907666  0.71488690  0.56625546     0.28100
H1807       H  0.89348436  0.80380323  0.54544070     0.18700
H1808       H  0.87087439  0.69029484  0.96079029     0.18700
C1809       C  0.54408078  0.02150833  0.50455121    -0.07100
C1810       C  0.52266428  0.04007001  0.51821631    -0.18200
C1811       C  0.99203829  0.01925347  0.51777958     0.10100
C1812       C  0.98310980  0.97760985  0.00022419    -0.07000
C1813       C  0.50339383  0.96377644  0.98386928    -0.18300
C1814       C  0.53403618  0.98219366  0.98707821     0.10100
S1815       S  0.96918902  0.04298948  0.54078301    -0.33200
S1816       S  0.56150893  0.95374028  0.97154144    -0.33200
H1817       H  0.53863695  0.92443608  0.95316681     0.28100
H1818       H  0.96019834  0.00486358  0.55128839     0.28100
H1819       H  0.52979319  0.06915764  0.53118717     0.18700
H1820       H  0.49620970  0.93525953  0.97021290     0.18700
C1821       C  0.72513320  0.97861884  0.50145341    -0.07100
C1822       C  0.75275092  0.99249311  0.52556710    -0.18200
C1823       C  0.78194926  0.99914493  0.51924426     0.10100
C1824       C  0.78568538  0.98741903  0.98895640    -0.07000
C1825       C  0.75824971  0.97375798  0.96445494    -0.18300
C1826       C  0.72801802  0.97058368  0.96934808     0.10100
S1827       S  0.81601417  0.01976764  0.55093950    -0.33200
S1828       S  0.69325733  0.95512298  0.93613959    -0.33200
H1829       H  0.67256640  0.94531401  0.95438694     0.28100
H1830       H  0.83292348  0.03667400  0.53105741     0.28100
H1831       H  0.75063115  0.00321090  0.54818801     0.18700
H1832       H  0.76052235  0.96365817  0.94191585     0.18700
C1833       C  0.89206344  0.94927879  0.58245169    -0.07100
C1834       C  0.91949137  0.97246383  0.59998715    -0.18200
C1835       C  0.92210172  0.98881296  0.63021677     0.10100
C1836       C  0.89574339  0.98378297  0.64297318    -0.07000
C1837       C  0.86927447  0.95780367  0.62641139    -0.18300
C1838       C  0.86744965  0.94002259  0.59669123     0.10100
S1839       S  0.95949902  0.01605200  0.65181711    -0.33200
S1840       S  0.83154926  0.90925359  0.57667513    -0.33200
H1841       H  0.84888671  0.87682904  0.56891162     0.28100
H1842       H  0.97715331  0.00747324  0.63066162     0.28100
H1843       H  0.93856868  0.97882536  0.58944670     0.18700
H1844       H  0.84915952  0.95282969  0.63589056     0.18700
C1845       C  0.88544783  0.03801265  0.82765208    -0.07100
C1846       C  0.91012467  0.01187203  0.84441309    -0.18200
C1847       C  0.91144414  0.99643819  0.87433928     0.10100
C1848       C  0.88667083  0.00526028  0.88804675    -0.07000
C1849       C  0.86323151  0.03365605  0.87266800    -0.18300
C1850       C  0.86279669  0.05083367  0.84320970     0.10100
S1851       S  0.94603201  0.96614494  0.89413912    -0.33200
S1852       S  0.83267861  0.08880569  0.82714165    -0.33200
H1853       H  0.85476542  0.11656103  0.81949660     0.28100
H1854       H  0.94874913  0.98155248  0.92472130     0.28100
H1855       H  0.92857588  0.00273102  0.83402250     0.18700
H1856       H  0.84472601  0.04190445  0.88330630     0.18700
loop_ 
_geom_bond_atom_site_label_1 
_geom_bond_atom_site_label_2 
_geom_bond_distance 
_geom_bond_site_symmetry_2 
_ccdc_geom_bond_type 
O1          Cr19   2.067       .  S
O1            C9   1.290       .  A
O2          Cr19   1.970       .  S
O2            C3   1.256       .  A
C3            O4   1.267   1_565  A
C3          C456   1.495   1_565  S
O4          Cr20   2.019   1_545  S
O5          Cr20   2.009       .  S
O5            C6   1.252       .  A
C6            O7   1.233       .  A
C6          C432   1.442       .  S
O7          Cr21   1.934       .  S
O8          Cr21   1.942       .  S
O8            C9   1.269       .  A
C9          C393   1.484       .  S
O10         Cr19   2.011       .  S
O10          C18   1.252       .  A
O11         Cr19   2.022       .  S
O11          C12   1.277       .  A
C12          O13   1.257       .  A
C12         C420   1.499       .  S
O13         Cr20   1.958       .  S
O14        Cr484   2.052   1_554  S
O14          C15   1.287       .  A
C15          O16   1.275       .  A
C15         C441   1.488       .  S
O16        Cr485   1.979   1_554  S
O17        Cr485   1.954       .  S
O17         C482   1.239       .  A
C18         O481   1.236       .  A
C18         C405   1.463       .  S
Cr19         O22   1.768       .  S
Cr20        O478   2.054       .  S
Cr20         O22   1.768       .  S
Cr21        O480   1.976       .  S
Cr21        O481   1.945       .  S
Cr21         O22   1.773       .  S
O23         Cr41   1.993       .  S
O23          C31   1.257       .  A
O24         Cr41   1.943       .  S
O24          C25   1.242       .  A
C25          O26   1.262       .  A
C25         C381   1.468       .  S
O26         Cr42   1.992       .  S
O27         Cr42   2.007       .  S
O27          C28   1.268       .  A
C28          O29   1.261       .  A
C28         C345   1.484       .  S
O29         Cr43   1.989       .  S
O30         Cr43   2.034       .  S
O30          C31   1.270       .  A
C31         C336   1.516       .  S
O32         Cr41   1.946   1_556  S
O32          C40   1.252   1_556  A
O33        Cr505   2.003       .  S
O33          C34   1.262       .  A
C34          O35   1.268       .  A
C34         C360   1.497       .  S
O35        Cr506   1.995       .  S
O36         Cr42   1.988       .  S
O36          C37   1.264       .  A
C37          O38   1.283       .  A
C37         C369   1.503       .  S
O38         Cr43   2.039       .  S
O39         Cr43   2.041       .  S
O39          C40   1.273       .  A
C40         C408   1.488       .  S
Cr41        O497   1.995   1_554  S
Cr41         O44   1.771       .  S
Cr42        O499   2.003   1_554  S
Cr42         O44   1.772       .  S
Cr43         O44   1.766       .  S
O45         Cr63   2.049       .  S
O45          C53   1.278       .  A
O46         Cr63   1.972       .  S
O46          C47   1.257       .  A
C47          O48   1.265   1_565  A
C47         C288   1.484   1_565  S
O48         Cr64   2.023   1_545  S
O49         Cr64   1.988   1_545  S
O49          C50   1.258   1_545  A
C50          O51   1.252       .  A
C50         C321   1.446   1_565  S
O51         Cr65   1.954       .  S
O52         Cr65   1.951       .  S
O52          C53   1.256       .  A
C53         C396   1.478       .  S
O54         Cr63   2.010       .  S
O54          C62   1.265       .  A
O55         Cr63   2.052       .  S
O55          C56   1.279       .  A
C56          O57   1.257       .  A
C56         C309   1.511       .  S
O57         Cr64   1.958       .  S
O58         Cr64   2.026       .  S
O58          C59   1.272       .  A
C59          O60   1.265       .  A
C59         C297   1.479       .  S
O60         Cr65   1.982       .  S
O61         Cr65   1.974       .  S
O61          C62   1.253       .  A
C62         C273   1.478       .  S
Cr63         O66   1.780       .  S
Cr64         O66   1.781       .  S
Cr65         O66   1.782       .  S
O67         Cr85   2.001       .  S
O67          C75   1.263       .  A
O68         Cr85   1.951       .  S
O68          C69   1.247       .  A
C69          O70   1.257       .  A
C69         C240   1.466       .  S
O70         Cr86   1.974       .  S
O71         Cr86   2.011       .  S
O71          C72   1.268       .  A
C72          O73   1.259       .  A
C72         C264   1.478       .  S
O73         Cr87   1.987       .  S
O74         Cr87   2.019       .  S
O74          C75   1.269       .  A
C75         C333   1.502       .  S
O76         Cr85   1.964       .  S
O76          C84   1.255       .  A
O77         Cr85   2.009       .  S
O77          C78   1.265       .  A
C78          O79   1.271       .  A
C78         C249   1.500       .  S
O79         Cr86   2.000       .  S
O80         Cr86   1.971       .  S
O80          C81   1.261       .  A
C81          O82   1.285       .  A
C81         C228   1.512       .  S
O82         Cr87   2.045       .  S
O83         Cr87   2.035       .  S
O83          C84   1.270       .  A
C84         C276   1.488       .  S
Cr85         O88   1.780       .  S
Cr86         O88   1.775       .  S
Cr87         O88   1.776       .  S
O89        Cr107   2.029       .  S
O89          C97   1.270       .  A
O90        Cr107   1.983       .  S
O90          C91   1.258       .  A
C91          O92   1.268       .  A
C91         C357   1.495       .  S
O92        Cr108   2.004       .  S
O93        Cr108   1.981       .  S
O93          C94   1.260       .  A
C94          O95   1.249       .  A
C94         C237   1.468       .  S
O95        Cr109   1.954       .  S
O96        Cr109   1.993       .  S
O96          C97   1.256       .  A
C97         C201   1.508       .  S
O98        Cr107   2.037       .  S
O98         C106   1.273       .  A
O99        Cr107   2.044       .  S
O99         C100   1.285       .  A
C100        O101   1.260       .  A
C100        C225   1.507       .  S
O101       Cr108   1.970       .  S
O102       Cr108   1.995       .  S
O102        C103   1.267       .  A
C103        O104   1.262       .  A
C103        C348   1.491       .  S
O104       Cr109   1.994       .  S
O105       Cr109   1.961       .  S
O105        C106   1.256       .  A
C106        C213   1.496       .  S
Cr107       O110   1.768       .  S
Cr108       O110   1.774       .  S
Cr109       O110   1.779       .  S
O111       Cr129   2.002       .  S
O111        C119   1.260       .  A
O112       Cr129   1.943       .  S
O112        C113   1.246       .  A
C113        O114   1.262       .  A
C113        C324   1.456       .  S
O114       Cr130   2.008       .  S
O115       Cr130   2.015   1_565  S
O115        C116   1.270   1_565  A
C116        O117   1.263       .  A
C116        C444   1.502   1_545  S
O117       Cr131   1.995       .  S
O118       Cr131   2.014       .  S
O118        C119   1.265       .  A
C119        C189   1.507       .  S
O120       Cr129   1.956       .  S
O120        C128   1.255       .  A
O121       Cr129   2.016       .  S
O121        C122   1.265       .  A
C122        O123   1.268       .  A
C122        C453   1.507       .  S
O123       Cr130   1.999       .  S
O124       Cr130   1.987       .  S
O124        C125   1.264       .  A
C125        O126   1.280       .  A
C125        C312   1.495       .  S
O126       Cr131   2.027       .  S
O127       Cr131   2.049       .  S
O127        C128   1.276       .  A
C128        C216   1.498       .  S
Cr129       O132   1.770       .  S
Cr130       O132   1.776       .  S
Cr131       O132   1.770       .  S
O133       Cr151   1.971       .  S
O133        C141   1.262       .  A
O134       Cr151   1.953   1_556  S
O134        C135   1.253   1_556  A
C135        O136   1.259   1_545  A
C135        C429   1.432   1_544  S
O136       Cr152   1.976   1_565  S
O137       Cr152   2.037   1_565  S
O137        C138   1.268   1_565  A
C138        O139   1.257       .  A
C138        C300   1.486   1_545  S
O139       Cr153   1.976       .  S
O140       Cr153   2.051       .  S
O140        C141   1.278       .  A
C141        C192   1.510       .  S
O142       Cr151   1.978       .  S
O142        C150   1.256       .  A
O143       Cr615   1.992       .  S
O143        C144   1.269       .  A
C144        O145   1.272       .  A
C144        C285   1.487       .  S
O145       Cr616   2.019       .  S
O146       Cr152   1.946   1_556  S
O146        C147   1.249   1_556  A
C147        O148   1.279       .  A
C147        C417   1.495       .  S
O148       Cr153   2.065       .  S
O149       Cr153   1.998       .  S
O149        C150   1.265       .  A
C150        C177   1.470       .  S
Cr151       O607   1.994   1_554  S
Cr151       O154   1.768       .  S
Cr152       O609   2.013   1_554  S
Cr152       O154   1.766       .  S
Cr153       O154   1.771       .  S
O155       Cr173   2.063       .  S
O155        C163   1.281       .  A
O156       Cr173   1.954       .  S
O156        C157   1.247       .  A
C157        O158   1.267       .  A
C157        C252   1.498       .  S
O158       Cr174   2.046       .  S
O159       Cr174   2.011       .  S
O159        C160   1.265       .  A
C160        O161   1.245       .  A
C160        C384   1.453       .  S
O161       Cr175   1.937       .  S
O162       Cr175   1.944       .  S
O162        C163   1.257       .  A
C163        C204   1.509       .  S
O164       Cr173   2.004       .  S
O164        C172   1.261       .  A
O165       Cr173   2.067       .  S
O165        C166   1.286       .  A
C166        O167   1.260       .  A
C166        C372   1.504       .  S
O167       Cr174   1.953       .  S
O168       Cr638   2.032   1_554  S
O168        C169   1.277       .  A
C169        O170   1.271       .  A
C169        C261   1.486       .  S
O170       Cr639   1.991       .  S
O171       Cr639   1.956   1_556  S
O171        C636   1.247       .  A
C172        O635   1.248       .  A
C172        C644   1.476       .  S
Cr173       O176   1.771       .  S
Cr174       O632   2.038       .  S
Cr174       O176   1.779       .  S
Cr175       O634   1.985       .  S
Cr175       O635   1.955       .  S
Cr175       O176   1.771       .  S
C177        C182   1.419       .  A
C177        C642   1.394   1_554  A
C178        C179   1.394       .  A
C178        C641   1.394       .  A
C178        H187   1.084       .  S
C179        C644   1.421       .  A
C179        S183   1.801       .  S
C180        C636   1.473       .  S
C180        C181   1.398   1_556  A
C180        C643   1.418       .  A
C181        C182   1.401       .  A
C181        H188   1.084       .  S
C182        S184   1.802       .  S
S183        H186   1.403       .  S
S184        H185   1.406       .  S
C189        C190   1.413       .  A
C189        C194   1.413       .  A
C190        C191   1.410       .  A
C190        H199   1.083       .  S
C191        C192   1.418       .  A
C191        S195   1.801       .  S
C192        C193   1.414       .  A
C193        C194   1.406       .  A
C193        H200   1.083       .  S
C194        S196   1.798       .  S
S195        H198   1.407       .  S
S196        H197   1.407       .  S
C201        C202   1.419       .  A
C201        C206   1.413       .  A
C202       C1131   1.419       .  A
C202        H211   1.083       .  S
C203        C204   1.414       .  A
C203       C1130   1.419   1_455  A
C203        S207   1.796       .  S
C204        C205   1.409   1_455  A
C205       C1134   1.395       .  A
C205        H212   1.082   1_655  S
C206       C1133   1.398       .  A
C206        S208   1.799       .  S
S207        H210   1.407       .  S
S208        H209   1.406       .  S
C213        C214   1.407       .  A
C213        C218   1.417       .  A
C214        C215   1.407       .  A
C214        H223   1.082       .  S
C215        C216   1.418       .  A
C215        S219   1.810       .  S
C216        C217   1.408       .  A
C217        C218   1.406       .  A
C217        H224   1.084       .  S
C218        S220   1.803       .  S
S219        H222   1.406       .  S
S220        H221   1.407       .  S
C225        C226   1.421       .  A
C225        C230   1.408       .  A
C226        C227   1.412       .  A
C226        H235   1.084       .  S
C227        C228   1.411       .  A
C227        S231   1.798       .  S
C228        C229   1.421       .  A
C229        C230   1.408       .  A
C229        H236   1.084       .  S
C230        S232   1.798       .  S
S231        H234   1.407       .  S
S232        H233   1.407       .  S
C237        C238   1.401       .  A
C237        C242   1.411       .  A
C238       C1167   1.392       .  A
C238        H247   1.082       .  S
C239        C240   1.417       .  A
C239       C1166   1.394   1_455  A
C239        S243   1.811       .  S
C240        C241   1.402       .  A
C241       C1170   1.388       .  A
C241        H248   1.083       .  S
C242       C1169   1.393       .  A
C242        S244   1.811       .  S
S243        H246   1.406   1_455  S
S244        H245   1.406       .  S
C249        C250   1.401       .  A
C249        C254   1.425       .  A
C250        C251   1.398       .  A
C250        H259   1.084       .  S
C251        C252   1.423       .  A
C251        S255   1.803       .  S
C252        C253   1.404       .  A
C253        C254   1.413       .  A
C253        H260   1.083       .  S
C254        S256   1.802       .  S
S255        H258   1.402       .  S
S256        H257   1.407       .  S
C261        C262   1.409       .  A
C261        C266   1.412       .  A
C262        C263   1.399       .  A
C262        H271   1.084       .  S
C263        C264   1.409       .  A
C263        S267   1.805       .  S
C264        C265   1.410       .  A
C265        C266   1.410       .  A
C265        H272   1.084       .  S
C266        S268   1.803       .  S
S267        H270   1.405       .  S
S268        H269   1.404       .  S
C273        C274   1.405       .  A
C273        C278   1.411       .  A
C274        C275   1.403       .  A
C274        H283   1.084       .  S
C275        C276   1.413       .  A
C275        S279   1.803       .  S
C276        C277   1.410       .  A
C277        C278   1.407       .  A
C277        H284   1.084       .  S
C278        S280   1.804       .  S
S279        H282   1.407       .  S
S280        H281   1.406       .  S
C285        C286   1.409       .  A
C285        C290   1.412       .  A
C286        C287   1.410       .  A
C286        H295   1.084       .  S
C287        C288   1.416       .  A
C287        S291   1.805       .  S
C288        C289   1.404       .  A
C289        C290   1.400       .  A
C289        H296   1.084   1_545  S
C290        S292   1.803       .  S
S291        H294   1.401       .  S
S292        H293   1.407       .  S
C297        C298   1.397       .  A
C297        C302   1.414       .  A
C298        C299   1.401       .  A
C298        H307   1.084       .  S
C299        C300   1.416       .  A
C299        S303   1.791       .  S
C300        C301   1.403       .  A
C301        C302   1.408       .  A
C301        H308   1.083       .  S
C302        S304   1.805       .  S
S303        H306   1.405       .  S
S304        H305   1.407       .  S
C309        C310   1.409       .  A
C309        C314   1.429   1_565  A
C310       C1239   1.408   1_565  A
C310        H319   1.083       .  S
C311        C312   1.419       .  A
C311       C1238   1.409   1_545  A
C311        S315   1.803   1_545  S
C312       C1241   1.399       .  A
C313        C314   1.407       .  A
C313       C1240   1.399   1_455  A
C313        H320   1.083   1_455  S
C314        S316   1.804       .  S
S315        H318   1.407   1_565  S
S316        H317   1.408   1_545  S
C321        C322   1.402       .  A
C321        C326   1.405       .  A
C322        C323   1.392       .  A
C322        H331   1.085       .  S
C323        C324   1.408       .  A
C323        S327   1.803       .  S
C324        C325   1.403       .  A
C325        C326   1.391       .  A
C325        H332   1.083   1_545  S
C326        S328   1.798   1_545  S
S327        H330   1.407       .  S
S328        H329   1.406   1_565  S
C333        C334   1.412       .  A
C333        C338   1.412       .  A
C334       C1263   1.409   1_455  A
C334        H343   1.082       .  S
C335        C336   1.416       .  A
C335       C1262   1.404       .  A
C335        S339   1.795       .  S
C336        C337   1.419       .  A
C337       C1266   1.415       .  A
C337        H344   1.083       .  S
C338       C1265   1.407   1_455  A
C338        S340   1.802       .  S
S339        H342   1.405       .  S
S340        H341   1.407       .  S
C345        C346   1.399       .  A
C345        C350   1.417       .  A
C346        C347   1.403       .  A
C346        H355   1.084       .  S
C347        C348   1.424       .  A
C347        S351   1.803       .  S
C348        C349   1.403       .  A
C349        C350   1.399       .  A
C349        H356   1.084       .  S
C350        S352   1.803       .  S
S351        H354   1.407       .  S
S352        H353   1.407       .  S
C357        C358   1.403       .  A
C357        C362   1.424       .  A
C358        C359   1.403       .  A
C358        H367   1.083       .  S
C359        C360   1.424       .  A
C359        S363   1.803       .  S
C360        C361   1.401       .  A
C361        C362   1.401       .  A
C361        H368   1.080       .  S
C362        S364   1.813       .  S
S363        H366   1.408       .  S
S364        H365   1.407       .  S
C369        C370   1.400       .  A
C369        C838   1.422   1_554  A
C370        C371   1.411       .  A
C370        H379   1.084       .  S
C371        C836   1.433       .  A
C371        S375   1.803       .  S
C372        C373   1.406       .  A
C372        C835   1.424       .  A
C373        C374   1.409       .  A
C373        H380   1.083       .  S
C374        C833   1.418       .  A
C374        S376   1.801       .  S
S375        H378   1.407       .  S
S376        H377   1.406       .  S
C381        C382   1.397   1_554  A
C381        C386   1.424       .  A
C382       C1311   1.382       .  A
C382        H391   1.083   1_556  S
C383       C1310   1.382   1_556  A
C383        C848   1.421   1_655  A
C383        S387   1.810       .  S
C384        C385   1.395       .  A
C384        C847   1.419   1_455  A
C385       C1778   1.399   1_455  A
C385        H392   1.083       .  S
C386       C1777   1.400   1_554  A
C386        S852   1.810       .  S
S387        H854   1.407       .  S
S388        C850   1.809       .  S
S388        H853   1.407       .  S
H389        S852   1.407       .  S
H390        S851   1.407       .  S
C393        C394   1.400       .  A
C393        C398   1.414       .  A
C394        C395   1.389       .  A
C394        H403   1.083       .  S
C395        C396   1.408       .  A
C395        S399   1.797       .  S
C396        C397   1.411       .  A
C397        C398   1.415       .  A
C397        H404   1.084       .  S
C398        S400   1.800       .  S
S399        H402   1.403       .  S
S400        H401   1.406       .  S
C405        C410   1.406       .  A
C405        C870   1.403       .  A
C406        C407   1.400       .  A
C406        C869   1.402   1_554  A
C406        H415   1.085       .  S
C407        C408   1.418       .  A
C407        S411   1.800       .  S
C408        C873   1.410   1_554  A
C409        C410   1.398       .  A
C409        C872   1.413       .  A
C409        H416   1.084       .  S
C410        S412   1.803       .  S
S411        H414   1.407       .  S
S412        H413   1.405       .  S
C417        C418   1.399       .  A
C417        C886   1.428   1_544  A
C418       C1347   1.404   1_455  A
C418        H427   1.084       .  S
C419       C1346   1.404       .  A
C419        C884   1.428   1_544  A
C419        S423   1.801       .  S
C420        C883   1.428   1_565  A
C420       C1349   1.400       .  A
C421        C422   1.405       .  A
C421       C1348   1.400   1_455  A
C421        H428   1.082   1_455  S
C422        C881   1.427   1_565  A
C422        S424   1.812       .  S
S423        H426   1.404       .  S
S424        H425   1.406       .  S
C429        C430   1.395   1_556  A
C429        C898   1.410       .  A
C430        C431   1.386       .  A
C430        H439   1.085   1_565  S
C431        C896   1.410   1_554  A
C431        S435   1.801   1_565  S
C432        C433   1.396       .  A
C432        C895   1.411   1_565  A
C433        C434   1.390       .  A
C433        H440   1.081       .  S
C434        C893   1.409       .  A
C434        S436   1.805       .  S
S435        H438   1.407       .  S
S436        H437   1.407       .  S
C441        C442   1.395       .  A
C441        C446   1.418       .  A
C442        C443   1.403       .  A
C442        H451   1.080       .  S
C443        C444   1.424       .  A
C443        S447   1.807   1_565  S
C444        C445   1.406       .  A
C445        C446   1.409       .  A
C445        H452   1.083       .  S
C446        S448   1.800       .  S
S447        H450   1.407       .  S
S448        H449   1.406       .  S
C453        C454   1.405       .  A
C453        C458   1.428       .  A
C454        C455   1.401   1_545  A
C454        H463   1.083       .  S
C455        C456   1.419   1_565  A
C455        S459   1.805       .  S
C456        C457   1.402       .  A
C457        C458   1.410       .  A
C457        H464   1.084       .  S
C458        S460   1.801       .  S
S459        H462   1.406       .  S
S460        H461   1.408       .  S
O465       Cr483   2.064       .  S
O465        C473   1.289       .  A
O466       Cr483   1.972       .  S
O466        C467   1.256       .  A
C467        O468   1.266   1_565  A
C467        C920   1.495   1_565  S
O468       Cr484   2.020   1_545  S
O469       Cr484   2.003       .  S
O469        C470   1.251       .  A
C470        O471   1.236   1_556  A
C470        C896   1.441       .  S
O471       Cr485   1.940   1_554  S
O472       Cr485   1.944       .  S
O472        C473   1.267       .  A
C473        C857   1.483       .  S
O474       Cr483   2.011       .  S
O474        C482   1.254       .  A
O475       Cr483   2.025       .  S
O475        C476   1.278       .  A
C476        O477   1.258       .  A
C476        C884   1.500       .  S
O477       Cr484   1.958       .  S
O478        C479   1.289       .  A
C479        O480   1.276       .  A
C479        C905   1.486       .  S
C482        C869   1.468       .  S
Cr483       O486   1.772       .  S
Cr484       O486   1.772       .  S
Cr485       O486   1.778       .  S
O487       Cr505   2.004       .  S
O487        C495   1.263       .  A
O488       Cr505   1.939       .  S
O488        C489   1.243       .  A
C489        O490   1.263       .  A
C489        C845   1.459       .  S
O490       Cr506   1.994       .  S
O491       Cr506   2.004       .  S
O491        C492   1.267       .  A
C492        O493   1.262       .  A
C492        C809   1.475       .  S
O493       Cr507   1.994       .  S
O494       Cr507   2.023       .  S
O494        C495   1.268       .  A
C495        C800   1.512       .  S
O496       Cr505   1.942       .  S
O496        C504   1.250       .  A
O497        C498   1.260       .  A
C498        O499   1.270       .  A
C498        C824   1.497       .  S
O500       Cr506   1.991       .  S
O500        C501   1.265       .  A
C501        O502   1.280       .  A
C501        C833   1.491       .  S
O502       Cr507   2.026       .  S
O503       Cr507   2.040       .  S
O503        C504   1.271       .  A
C504        C872   1.489       .  S
Cr505       O508   1.766       .  S
Cr506       O508   1.764       .  S
Cr507       O508   1.767       .  S
O509       Cr527   2.046       .  S
O509        C517   1.278       .  A
O510       Cr527   1.974       .  S
O510        C511   1.257       .  A
C511        O512   1.264   1_565  A
C511        C752   1.485   1_565  S
O512       Cr528   2.021   1_545  S
O513       Cr528   1.993   1_545  S
O513        C514   1.260   1_545  A
C514        O515   1.250       .  A
C514        C785   1.447   1_565  S
O515       Cr529   1.948       .  S
O516       Cr529   1.955       .  S
O516        C517   1.257       .  A
C517        C860   1.477       .  S
O518       Cr527   2.012       .  S
O518        C526   1.265       .  A
O519       Cr527   2.054       .  S
O519        C520   1.279       .  A
C520        O521   1.256       .  A
C520        C773   1.509       .  S
O521       Cr528   1.954       .  S
O522       Cr528   2.020       .  S
O522        C523   1.271       .  A
C523        O524   1.267       .  A
C523        C761   1.480       .  S
O524       Cr529   1.986       .  S
O525       Cr529   1.969       .  S
O525        C526   1.251       .  A
C526        C737   1.477       .  S
Cr527       O530   1.783       .  S
Cr528       O530   1.780       .  S
Cr529       O530   1.783       .  S
O531       Cr549   2.001       .  S
O531        C539   1.263       .  A
O532       Cr549   1.953       .  S
O532        C533   1.248       .  A
C533        O534   1.255       .  A
C533        C704   1.462       .  S
O534       Cr550   1.971       .  S
O535       Cr550   2.007       .  S
O535        C536   1.268       .  A
C536        O537   1.259       .  A
C536        C728   1.475       .  S
O537       Cr551   1.985       .  S
O538       Cr551   2.024       .  S
O538        C539   1.269       .  A
C539        C797   1.505       .  S
O540       Cr549   1.964       .  S
O540        C548   1.255       .  A
O541       Cr549   2.009       .  S
O541        C542   1.265       .  A
C542        O543   1.270       .  A
C542        C713   1.497       .  S
O543       Cr550   1.999       .  S
O544       Cr550   1.964       .  S
O544        C545   1.259       .  A
C545        O546   1.284       .  A
C545        C692   1.511       .  S
O546       Cr551   2.045       .  S
O547       Cr551   2.033       .  S
O547        C548   1.270       .  A
C548        C740   1.487       .  S
Cr549       O552   1.778       .  S
Cr550       O552   1.774       .  S
Cr551       O552   1.775       .  S
O553       Cr571   2.031       .  S
O553        C561   1.270       .  A
O554       Cr571   1.984       .  S
O554        C555   1.258       .  A
C555        O556   1.266       .  A
C555        C821   1.489       .  S
O556       Cr572   2.003       .  S
O557       Cr572   1.982       .  S
O557        C558   1.261       .  A
C558        O559   1.249       .  A
C558        C701   1.464       .  S
O559       Cr573   1.947       .  S
O560       Cr573   1.994       .  S
O560        C561   1.256       .  A
C561        C665   1.501       .  S
O562       Cr571   2.037       .  S
O562        C570   1.273       .  A
O563       Cr571   2.036       .  S
O563        C564   1.284       .  A
C564        O565   1.261       .  A
C564        C689   1.506       .  S
O565       Cr572   1.970       .  S
O566       Cr572   1.997       .  S
O566        C567   1.265       .  A
C567        O568   1.262       .  A
C567        C812   1.483       .  S
O568       Cr573   1.997       .  S
O569       Cr573   1.964       .  S
O569        C570   1.257       .  A
C570        C677   1.496       .  S
Cr571       O574   1.770       .  S
Cr572       O574   1.773       .  S
Cr573       O574   1.779       .  S
O575       Cr593   1.998       .  S
O575        C583   1.259       .  A
O576       Cr593   1.947       .  S
O576        C577   1.246       .  A
C577        O578   1.262       .  A
C577        C788   1.457       .  S
O578       Cr594   2.008       .  S
O579       Cr594   2.015   1_565  S
O579        C580   1.270   1_565  A
C580        O581   1.261       .  A
C580        C908   1.501   1_545  S
O581       Cr595   1.992       .  S
O582       Cr595   2.015       .  S
O582        C583   1.265       .  A
C583        C653   1.505       .  S
O584       Cr593   1.960       .  S
O584        C592   1.257       .  A
O585       Cr593   2.018       .  S
O585        C586   1.266       .  A
C586        O587   1.269       .  A
C586        C917   1.508       .  S
O587       Cr594   1.999       .  S
O588       Cr594   1.988       .  S
O588        C589   1.265       .  A
C589        O590   1.280       .  A
C589        C776   1.493       .  S
O590       Cr595   2.025       .  S
O591       Cr595   2.045       .  S
O591        C592   1.275       .  A
C592        C680   1.498       .  S
Cr593       O596   1.771       .  S
Cr594       O596   1.776       .  S
Cr595       O596   1.771       .  S
O597       Cr615   1.969       .  S
O597        C605   1.261       .  A
O598       Cr615   1.952       .  S
O598        C599   1.252       .  A
C599        O600   1.259   1_545  A
C599        C893   1.432   1_545  S
O600       Cr616   1.980   1_565  S
O601       Cr616   2.039   1_565  S
O601        C602   1.268   1_565  A
C602        O603   1.256       .  A
C602        C764   1.487   1_545  S
O603       Cr617   1.976       .  S
O604       Cr617   2.050       .  S
O604        C605   1.278       .  A
C605        C656   1.508       .  S
O606       Cr615   1.979       .  S
O606        C614   1.256       .  A
O607        C608   1.269       .  A
C608        O609   1.270       .  A
C608        C749   1.486       .  S
O610       Cr616   1.947       .  S
O610        C611   1.250       .  A
C611        O612   1.280       .  A
C611        C881   1.496       .  S
O612       Cr617   2.063       .  S
O613       Cr617   1.995       .  S
O613        C614   1.264       .  A
C614        C641   1.474       .  S
Cr615       O618   1.770       .  S
Cr616       O618   1.767       .  S
Cr617       O618   1.770       .  S
O619       Cr637   2.071       .  S
O619        C627   1.284       .  A
O620       Cr637   1.954       .  S
O620        C621   1.246       .  A
C621        O622   1.265       .  A
C621        C716   1.497       .  S
O622       Cr638   2.041       .  S
O623       Cr638   2.015       .  S
O623        C624   1.267       .  A
C624        O625   1.244   1_556  A
C624        C848   1.454       .  S
O625       Cr639   1.933       .  S
O626       Cr639   1.949   1_556  S
O626        C627   1.257       .  A
C627        C668   1.518       .  S
O628       Cr637   2.007       .  S
O628        C636   1.260       .  A
O629       Cr637   2.078       .  S
O629        C630   1.289       .  A
C630        O631   1.260   1_556  A
C630        C836   1.519   1_556  S
O631       Cr638   1.956   1_554  S
O632        C633   1.278       .  A
C633        O634   1.269       .  A
C633        C725   1.484       .  S
Cr637       O640   1.771       .  S
Cr638       O640   1.780       .  S
Cr639       O640   1.776   1_554  S
C641        C646   1.420       .  A
C642        C643   1.395       .  A
C642        H651   1.084       .  S
C643        S647   1.800       .  S
C644        C645   1.397       .  A
C645        C646   1.400       .  A
C645        H652   1.084       .  S
C646        S648   1.802       .  S
S647        H650   1.405       .  S
S648        H649   1.405       .  S
C653        C654   1.413       .  A
C653        C658   1.413       .  A
C654        C655   1.408       .  A
C654        H663   1.083       .  S
C655        C656   1.417       .  A
C655        S659   1.801       .  S
C656        C657   1.415       .  A
C657        C658   1.407       .  A
C657        H664   1.084       .  S
C658        S660   1.799       .  S
S659        H662   1.407       .  S
S660        H661   1.407       .  S
C665        C666   1.416       .  A
C665        C670   1.412       .  A
C666       C1595   1.418       .  A
C666        H675   1.084       .  S
C667       C1594   1.420   1_455  A
C667        C668   1.415       .  A
C667        S671   1.796       .  S
C668        C669   1.414   1_455  A
C669       C1598   1.401       .  A
C669        H676   1.080       .  S
C670       C1597   1.395       .  A
C670        S672   1.794       .  S
S671        H674   1.407       .  S
S672        H673   1.398       .  S
C677        C678   1.409       .  A
C677        C682   1.417       .  A
C678        C679   1.408       .  A
C678        H687   1.082       .  S
C679        C680   1.417       .  A
C679        S683   1.810       .  S
C680        C681   1.409       .  A
C681        C682   1.406       .  A
C681        H688   1.084       .  S
C682        S684   1.803       .  S
S683        H686   1.406       .  S
S684        H685   1.407       .  S
C689        C690   1.421       .  A
C689        C694   1.406       .  A
C690        C691   1.411       .  A
C690        H699   1.084       .  S
C691        C692   1.410       .  A
C691        S695   1.798       .  S
C692        C693   1.422       .  A
C693        C694   1.405       .  A
C693        H700   1.083       .  S
C694        S696   1.799       .  S
S695        H698   1.407       .  S
S696        H697   1.408       .  S
C701        C702   1.401       .  A
C701        C706   1.410       .  A
C702       C1631   1.393       .  A
C702        H711   1.083       .  S
C703       C1630   1.392   1_455  A
C703        C704   1.416       .  A
C703        S707   1.811       .  S
C704        C705   1.402       .  A
C705       C1634   1.389       .  A
C705        H712   1.083       .  S
C706       C1633   1.389       .  A
C706        S708   1.812       .  S
S707        H710   1.406   1_455  S
S708        H709   1.406       .  S
C713        C714   1.400       .  A
C713        C718   1.424       .  A
C714        C715   1.397       .  A
C714        H723   1.084       .  S
C715        C716   1.423       .  A
C715        S719   1.802       .  S
C716        C717   1.404       .  A
C717        C718   1.412       .  A
C717        H724   1.083       .  S
C718        S720   1.802       .  S
S719        H722   1.402       .  S
S720        H721   1.407       .  S
C725        C726   1.408       .  A
C725        C730   1.414       .  A
C726        C727   1.399       .  A
C726        H735   1.084       .  S
C727        C728   1.408       .  A
C727        S731   1.805       .  S
C728        C729   1.409       .  A
C729        C730   1.409       .  A
C729        H736   1.084       .  S
C730        S732   1.806       .  S
S731        H734   1.405       .  S
S732        H733   1.401       .  S
C737        C738   1.406       .  A
C737        C742   1.411       .  A
C738        C739   1.404       .  A
C738        H747   1.084       .  S
C739        C740   1.413       .  A
C739        S743   1.804       .  S
C740        C741   1.408       .  A
C741        C742   1.405       .  A
C741        H748   1.084       .  S
C742        S744   1.803       .  S
S743        H746   1.407       .  S
S744        H745   1.406       .  S
C749        C750   1.408       .  A
C749        C754   1.412       .  A
C750        C751   1.410       .  A
C750        H759   1.084       .  S
C751        C752   1.416       .  A
C751        S755   1.805       .  S
C752        C753   1.404       .  A
C753        C754   1.400       .  A
C753        H760   1.084   1_545  S
C754        S756   1.804       .  S
S755        H758   1.401       .  S
S756        H757   1.407       .  S
C761        C762   1.398       .  A
C761        C766   1.416       .  A
C762        C763   1.400       .  A
C762        H771   1.084       .  S
C763        C764   1.415       .  A
C763        S767   1.790   1_565  S
C764        C765   1.403       .  A
C765        C766   1.411       .  A
C765        H772   1.083       .  S
C766        S768   1.806       .  S
S767        H770   1.405   1_545  S
S768        H769   1.407       .  S
C773        C774   1.409       .  A
C773        C778   1.430   1_565  A
C774       C1703   1.409   1_565  A
C774        H783   1.083       .  S
C775       C1702   1.409   1_545  A
C775        C776   1.417       .  A
C775        S779   1.804       .  S
C776       C1705   1.400       .  A
C777       C1704   1.397   1_455  A
C777        C778   1.406       .  A
C777        H784   1.083   1_455  S
C778        S780   1.804       .  S
S779        H782   1.407       .  S
S780        H781   1.408   1_545  S
C785        C786   1.404       .  A
C785        C790   1.406       .  A
C786        C787   1.393       .  A
C786        H795   1.085       .  S
C787        C788   1.407       .  A
C787        S791   1.803       .  S
C788        C789   1.403       .  A
C789        C790   1.391       .  A
C789        H796   1.084   1_545  S
C790        S792   1.797   1_545  S
S791        H794   1.407       .  S
S792        H793   1.406   1_565  S
C797        C798   1.411       .  A
C797        C802   1.413       .  A
C798       C1727   1.412   1_455  A
C798        H807   1.081       .  S
C799       C1726   1.409       .  A
C799        C800   1.416       .  A
C799        S803   1.799       .  S
C800        C801   1.416       .  A
C801       C1730   1.411       .  A
C801        H808   1.082       .  S
C802       C1729   1.411   1_455  A
C802        S804   1.802       .  S
S803        H806   1.405       .  S
S804        H805   1.407       .  S
C809        C810   1.398       .  A
C809        C814   1.414       .  A
C810        C811   1.401       .  A
C810        H819   1.084       .  S
C811        C812   1.419       .  A
C811        S815   1.799       .  S
C812        C813   1.401       .  A
C813        C814   1.401       .  A
C813        H820   1.084       .  S
C814        S816   1.801       .  S
S815        H818   1.404       .  S
S816        H817   1.407       .  S
C821        C822   1.399       .  A
C821        C826   1.419       .  A
C822        C823   1.401       .  A
C822        H831   1.083       .  S
C823        C824   1.427       .  A
C823        S827   1.802       .  S
C824        C825   1.403       .  A
C825        C826   1.403       .  A
C825        H832   1.080       .  S
C826        S828   1.811       .  S
S827        H830   1.408       .  S
S828        H829   1.407       .  S
C833        C834   1.401       .  A
C834        C835   1.408       .  A
C834        H843   1.084       .  S
C835        S839   1.804       .  S
C836        C837   1.406   1_554  A
C837        C838   1.412       .  A
C837        H844   1.083       .  S
C838        S840   1.801       .  S
S839        H842   1.407       .  S
S840        H841   1.406       .  S
C845        C846   1.390       .  A
C845        C850   1.421       .  A
C846       C1775   1.381       .  A
C846        H855   1.083       .  S
C847       C1774   1.379       .  A
C847        S851   1.809       .  S
C848        C849   1.394       .  A
C849       C1314   1.397   1_456  A
C849        H856   1.083       .  S
C850       C1313   1.399       .  A
C857        C858   1.401       .  A
C857        C862   1.414       .  A
C858        C859   1.391       .  A
C858        H867   1.083       .  S
C859        C860   1.409       .  A
C859        S863   1.799       .  S
C860        C861   1.409       .  A
C861        C862   1.413       .  A
C861        H868   1.084       .  S
C862        S864   1.798       .  S
S863        H866   1.402       .  S
S864        H865   1.405       .  S
C869        C874   1.409       .  A
C870        C871   1.399       .  A
C870        H879   1.085       .  S
C871        C872   1.417       .  A
C871        S875   1.800       .  S
C873        C874   1.400       .  A
C873        H880   1.084       .  S
C874        S876   1.803       .  S
S875        H878   1.408       .  S
S876        H877   1.405       .  S
C881        C882   1.399       .  A
C882       C1811   1.405   1_455  A
C882        H891   1.084       .  S
C883       C1810   1.403       .  A
C883        S887   1.801       .  S
C884       C1813   1.400       .  A
C885       C1812   1.399   1_456  A
C885        C886   1.404       .  A
C885        H892   1.082   1_455  S
C886        S888   1.811       .  S
S887        H890   1.403       .  S
S888        H889   1.407       .  S
C893        C894   1.395       .  A
C894        C895   1.387   1_565  A
C894        H903   1.086   1_565  S
C895        S899   1.801       .  S
C896        C897   1.396       .  A
C897        C898   1.391       .  A
C897        H904   1.079       .  S
C898        S900   1.806       .  S
S899        H902   1.407       .  S
S900        H901   1.407       .  S
C905        C906   1.395       .  A
C905        C910   1.418       .  A
C906        C907   1.402       .  A
C906        H915   1.079       .  S
C907        C908   1.425       .  A
C907        S911   1.807   1_565  S
C908        C909   1.406       .  A
C909        C910   1.408       .  A
C909        H916   1.083       .  S
C910        S912   1.800       .  S
S911        H914   1.407       .  S
S912        H913   1.406       .  S
C917        C918   1.405       .  A
C917        C922   1.429       .  A
C918        C919   1.401   1_545  A
C918        H927   1.083       .  S
C919        C920   1.418   1_565  A
C919        S923   1.803       .  S
C920        C921   1.403       .  A
C921        C922   1.412       .  A
C921        H928   1.084       .  S
C922        S924   1.801       .  S
S923        H926   1.406       .  S
S924        H925   1.408       .  S
O929       Cr947   2.069       .  S
O929        C937   1.291       .  A
O930       Cr947   1.972       .  S
O930        C931   1.257       .  A
C931        O932   1.267   1_565  A
C931       C1384   1.496   1_565  S
O932       Cr948   2.019   1_545  S
O933       Cr948   2.008       .  S
O933        C934   1.251       .  A
C934        O935   1.232       .  A
C934       C1360   1.438       .  S
O935       Cr949   1.931       .  S
O936       Cr949   1.946       .  S
O936        C937   1.269       .  A
C937       C1321   1.488       .  S
O938       Cr947   2.017       .  S
O938        C946   1.254       .  A
O939       Cr947   2.027       .  S
O939        C940   1.278       .  A
C940        O941   1.258       .  A
C940       C1348   1.501       .  S
O941       Cr948   1.960       .  S
O942      Cr1412   2.054   1_554  S
O942        C943   1.288       .  A
C943        O944   1.276       .  A
C943       C1369   1.487       .  S
O944      Cr1413   1.980   1_554  S
O945      Cr1413   1.950       .  S
O945       C1410   1.238       .  A
C946       O1409   1.236       .  A
C946       C1333   1.467       .  S
Cr947       O950   1.768       .  S
Cr948      O1406   2.059       .  S
Cr948       O950   1.769       .  S
Cr949      O1408   1.978       .  S
Cr949      O1409   1.947       .  S
Cr949       O950   1.774       .  S
O951       Cr969   1.994       .  S
O951        C959   1.260       .  A
O952       Cr969   1.943       .  S
O952        C953   1.245       .  A
C953        O954   1.262       .  A
C953       C1309   1.461       .  S
O954       Cr970   1.992       .  S
O955       Cr970   2.004       .  S
O955        C956   1.266       .  A
C956        O957   1.262       .  A
C956       C1273   1.479       .  S
O957       Cr971   1.996       .  S
O958       Cr971   2.026       .  S
O958        C959   1.268       .  A
C959       C1264   1.507       .  S
O960       Cr969   1.947       .  S
O960        C968   1.252       .  A
O961      Cr1433   1.999       .  S
O961        C962   1.261       .  A
C962        O963   1.269       .  A
C962       C1288   1.496       .  S
O963      Cr1434   1.995       .  S
O964       Cr970   1.992       .  S
O964        C965   1.265       .  A
C965        O966   1.280       .  A
C965       C1297   1.494       .  S
O966       Cr971   2.027       .  S
O967       Cr971   2.043       .  S
O967        C968   1.273       .  A
C968       C1336   1.492       .  S
Cr969      O1425   1.993   1_554  S
Cr969       O972   1.768       .  S
Cr970      O1427   1.997   1_554  S
Cr970       O972   1.766       .  S
Cr971       O972   1.769       .  S
O973       Cr991   2.051       .  S
O973        C981   1.279       .  A
O974       Cr991   1.972       .  S
O974        C975   1.258       .  A
C975        O976   1.264   1_565  A
C975       C1216   1.481   1_565  S
O976       Cr992   2.021   1_545  S
O977       Cr992   1.988   1_545  S
O977        C978   1.257   1_545  A
C978        O979   1.253       .  A
C978       C1249   1.444   1_565  S
O979       Cr993   1.952       .  S
O980       Cr993   1.955       .  S
O980        C981   1.257       .  A
C981       C1324   1.480       .  S
O982       Cr991   2.015       .  S
O982        C990   1.267       .  A
O983       Cr991   2.060       .  S
O983        C984   1.281       .  A
C984        O985   1.255       .  A
C984       C1237   1.513       .  S
O985       Cr992   1.954       .  S
O986       Cr992   2.025       .  S
O986        C987   1.272       .  A
C987        O988   1.266       .  A
C987       C1225   1.479       .  S
O988       Cr993   1.984       .  S
O989       Cr993   1.973       .  S
O989        C990   1.253       .  A
C990       C1201   1.481       .  S
Cr991       O994   1.779       .  S
Cr992       O994   1.780       .  S
Cr993       O994   1.779       .  S
O995      Cr1013   2.010       .  S
O995       C1003   1.266       .  A
O996      Cr1013   1.938       .  S
O996        C997   1.244       .  A
C997        O998   1.259       .  A
C997       C1168   1.473       .  S
O998      Cr1014   1.989       .  S
O999      Cr1014   2.014       .  S
O999       C1000   1.269       .  A
C1000      O1001   1.260       .  A
C1000      C1192   1.479       .  S
O1001     Cr1015   1.990       .  S
O1002     Cr1015   2.018       .  S
O1002      C1003   1.269       .  A
C1003      C1261   1.501       .  S
O1004     Cr1013   1.965       .  S
O1004      C1012   1.254       .  A
O1005     Cr1013   2.008       .  S
O1005      C1006   1.266       .  A
C1006      O1007   1.270       .  A
C1006      C1177   1.500       .  S
O1007     Cr1014   1.997       .  S
O1008     Cr1014   1.981       .  S
O1008      C1009   1.263       .  A
C1009      O1010   1.284       .  A
C1009      C1156   1.509       .  S
O1010     Cr1015   2.040       .  S
O1011     Cr1015   2.035       .  S
O1011      C1012   1.269       .  A
C1012      C1204   1.491       .  S
Cr1013     O1016   1.776       .  S
Cr1014     O1016   1.776       .  S
Cr1015     O1016   1.776       .  S
O1017     Cr1035   2.024       .  S
O1017      C1025   1.269       .  A
O1018     Cr1035   1.986       .  S
O1018      C1019   1.259       .  A
C1019      O1020   1.267       .  A
C1019      C1285   1.491       .  S
O1020     Cr1036   1.998       .  S
O1021     Cr1036   1.990       .  S
O1021      C1022   1.261       .  A
C1022      O1023   1.244       .  A
C1022      C1165   1.463       .  S
O1023     Cr1037   1.948       .  S
O1024     Cr1037   1.994       .  S
O1024      C1025   1.258       .  A
C1025      C1129   1.509       .  S
O1026     Cr1035   2.039       .  S
O1026      C1034   1.274       .  A
O1027     Cr1035   2.038       .  S
O1027      C1028   1.284       .  A
C1028      O1029   1.261       .  A
C1028      C1153   1.504       .  S
O1029     Cr1036   1.973       .  S
O1030     Cr1036   1.991       .  S
O1030      C1031   1.265       .  A
C1031      O1032   1.266       .  A
C1031      C1276   1.488       .  S
O1032     Cr1037   2.011       .  S
O1033     Cr1037   1.962       .  S
O1033      C1034   1.257       .  A
C1034      C1141   1.495       .  S
Cr1035     O1038   1.767       .  S
Cr1036     O1038   1.772       .  S
Cr1037     O1038   1.773       .  S
O1039     Cr1057   2.003       .  S
O1039      C1047   1.261       .  A
O1040     Cr1057   1.940       .  S
O1040      C1041   1.243       .  A
C1041      O1042   1.264   1_545  A
C1041      C1252   1.459       .  S
O1042     Cr1058   2.017   1_565  S
O1043     Cr1058   2.013   1_565  S
O1043      C1044   1.270   1_565  A
C1044      O1045   1.265       .  A
C1044      C1372   1.500   1_545  S
O1045     Cr1059   2.001       .  S
O1046     Cr1059   2.012       .  S
O1046      C1047   1.264       .  A
C1047      C1117   1.507       .  S
O1048     Cr1057   1.953       .  S
O1048      C1056   1.255       .  A
O1049     Cr1057   2.022       .  S
O1049      C1050   1.267       .  A
C1050      O1051   1.268       .  A
C1050      C1381   1.508       .  S
O1051     Cr1058   1.997       .  S
O1052     Cr1058   1.993       .  S
O1052      C1053   1.266       .  A
C1053      O1054   1.278       .  A
C1053      C1240   1.492       .  S
O1054     Cr1059   2.019       .  S
O1055     Cr1059   2.050       .  S
O1055      C1056   1.277       .  A
C1056      C1144   1.495       .  S
Cr1057     O1060   1.766       .  S
Cr1058     O1060   1.776       .  S
Cr1059     O1060   1.768       .  S
O1061     Cr1079   1.973   1_554  S
O1061      C1069   1.262       .  A
O1062     Cr1079   1.956       .  S
O1062      C1063   1.253       .  A
C1063      O1064   1.259   1_546  A
C1063      C1357   1.432   1_545  S
O1064     Cr1080   1.978   1_565  S
O1065     Cr1080   2.037   1_565  S
O1065      C1066   1.268   1_565  A
C1066      O1067   1.256       .  A
C1066      C1228   1.485   1_545  S
O1067     Cr1081   1.973       .  S
O1068     Cr1081   2.048       .  S
O1068      C1069   1.277       .  A
C1069      C1120   1.510       .  S
O1070     Cr1079   1.980   1_554  S
O1070      C1078   1.257       .  A
O1071     Cr1543   1.991       .  S
O1071      C1072   1.267       .  A
C1072      O1073   1.270       .  A
C1072      C1213   1.485       .  S
O1073     Cr1544   2.015       .  S
O1074     Cr1080   1.946   1_556  S
O1074      C1075   1.249   1_556  A
C1075      O1076   1.279       .  A
C1075      C1345   1.494       .  S
O1076     Cr1081   2.063       .  S
O1077     Cr1081   1.990       .  S
O1077      C1078   1.265       .  A
C1078      C1105   1.475       .  S
Cr1079     O1535   1.991       .  S
Cr1079     O1082   1.769   1_556  S
Cr1080     O1537   2.014   1_554  S
Cr1080     O1082   1.767       .  S
Cr1081     O1082   1.769       .  S
O1083     Cr1101   2.069       .  S
O1083      C1091   1.283       .  A
O1084     Cr1101   1.955       .  S
O1084      C1085   1.247       .  A
C1085      O1086   1.265       .  A
C1085      C1180   1.495       .  S
O1086     Cr1102   2.036       .  S
O1087     Cr1102   2.013       .  S
O1087      C1088   1.266       .  A
C1088      O1089   1.245       .  A
C1088      C1312   1.454       .  S
O1089     Cr1103   1.939       .  S
O1090     Cr1103   1.943       .  S
O1090      C1091   1.256       .  A
C1091      C1132   1.509       .  S
O1092     Cr1101   1.999       .  S
O1092      C1100   1.260       .  A
O1093     Cr1101   2.071       .  S
O1093      C1094   1.288       .  A
C1094      O1095   1.259       .  A
C1094      C1300   1.508       .  S
O1095     Cr1102   1.950       .  S
O1096     Cr1566   2.032   1_554  S
O1096      C1097   1.276       .  A
C1097      O1098   1.266       .  A
C1097      C1189   1.488       .  S
O1098     Cr1567   1.984   1_554  S
O1099     Cr1567   1.946       .  S
O1099      C1564   1.245       .  A
C1100      O1563   1.245       .  A
C1100      C1572   1.481       .  S
Cr1101     O1104   1.774       .  S
Cr1102     O1560   2.032       .  S
Cr1102     O1104   1.779       .  S
Cr1103     O1562   1.984       .  S
Cr1103     O1563   1.951       .  S
Cr1103     O1104   1.774       .  S
C1105      C1570   1.393   1_554  A
C1105      C1110   1.421       .  A
C1106      C1569   1.397       .  A
C1106      C1107   1.395       .  A
C1106      H1115   1.084       .  S
C1107      C1572   1.424       .  A
C1107      S1111   1.805       .  S
C1108      C1564   1.479       .  S
C1108      C1571   1.424       .  A
C1108      C1109   1.399   1_556  A
C1109      C1110   1.401       .  A
C1109      H1116   1.084       .  S
C1110      S1112   1.803       .  S
S1111      H1114   1.406       .  S
S1112      H1113   1.406       .  S
C1117      C1118   1.412       .  A
C1117      C1122   1.413       .  A
C1118      C1119   1.409       .  A
C1118      H1127   1.083       .  S
C1119      C1120   1.418       .  A
C1119      S1123   1.801       .  S
C1120      C1121   1.414       .  A
C1121      C1122   1.407       .  A
C1121      H1128   1.083       .  S
C1122      S1124   1.799       .  S
S1123      H1126   1.407       .  S
S1124      H1125   1.407       .  S
C1129      C1130   1.419       .  A
C1129      C1134   1.413       .  A
C1130      H1139   1.083       .  S
C1131      C1132   1.413       .  A
C1131      S1135   1.796       .  S
C1132      C1133   1.411       .  A
C1133      H1140   1.082       .  S
C1134      S1136   1.795       .  S
S1135      H1138   1.407       .  S
S1136      H1137   1.406       .  S
C1141      C1142   1.408       .  A
C1141      C1146   1.417       .  A
C1142      C1143   1.408       .  A
C1142      H1151   1.082       .  S
C1143      C1144   1.418       .  A
C1143      S1147   1.810       .  S
C1144      C1145   1.407       .  A
C1145      C1146   1.405       .  A
C1145      H1152   1.084       .  S
C1146      S1148   1.803       .  S
S1147      H1150   1.406       .  S
S1148      H1149   1.407       .  S
C1153      C1154   1.419       .  A
C1153      C1158   1.408       .  A
C1154      C1155   1.410       .  A
C1154      H1163   1.084       .  S
C1155      C1156   1.411       .  A
C1155      S1159   1.798       .  S
C1156      C1157   1.419       .  A
C1157      C1158   1.408       .  A
C1157      H1164   1.084       .  S
C1158      S1160   1.798       .  S
S1159      H1162   1.407       .  S
S1160      H1161   1.407       .  S
C1165      C1166   1.401       .  A
C1165      C1170   1.414   1_655  A
C1166      H1175   1.083       .  S
C1167      C1168   1.420       .  A
C1167      S1171   1.812       .  S
C1168      C1169   1.406       .  A
C1169      H1176   1.082       .  S
C1170      S1172   1.812       .  S
S1171      H1174   1.406       .  S
S1172      H1173   1.407       .  S
C1177      C1178   1.402       .  A
C1177      C1182   1.424       .  A
C1178      C1179   1.398       .  A
C1178      H1187   1.084       .  S
C1179      C1180   1.422       .  A
C1179      S1183   1.803       .  S
C1180      C1181   1.403       .  A
C1181      C1182   1.410       .  A
C1181      H1188   1.084       .  S
C1182      S1184   1.802       .  S
S1183      H1186   1.403       .  S
S1184      H1185   1.408       .  S
C1189      C1190   1.406       .  A
C1189      C1194   1.415       .  A
C1190      C1191   1.397       .  A
C1190      H1199   1.085       .  S
C1191      C1192   1.410       .  A
C1191      S1195   1.802       .  S
C1192      C1193   1.409       .  A
C1193      C1194   1.411       .  A
C1193      H1200   1.084       .  S
C1194      S1196   1.802       .  S
S1195      H1198   1.406       .  S
S1196      H1197   1.406       .  S
C1201      C1202   1.406       .  A
C1201      C1206   1.412       .  A
C1202      C1203   1.405       .  A
C1202      H1211   1.084       .  S
C1203      C1204   1.414       .  A
C1203      S1207   1.803       .  S
C1204      C1205   1.409       .  A
C1205      C1206   1.407       .  A
C1205      H1212   1.084       .  S
C1206      S1208   1.803       .  S
S1207      H1210   1.407       .  S
S1208      H1209   1.406       .  S
C1213      C1214   1.407       .  A
C1213      C1218   1.412       .  A
C1214      C1215   1.409       .  A
C1214      H1223   1.084       .  S
C1215      C1216   1.416       .  A
C1215      S1219   1.807       .  S
C1216      C1217   1.404       .  A
C1217      C1218   1.399       .  A
C1217      H1224   1.085   1_545  S
C1218      S1220   1.804       .  S
S1219      H1222   1.399       .  S
S1220      H1221   1.407       .  S
C1225      C1226   1.399       .  A
C1225      C1230   1.413       .  A
C1226      C1227   1.402       .  A
C1226      H1235   1.084       .  S
C1227      C1228   1.416       .  A
C1227      S1231   1.794       .  S
C1228      C1229   1.403       .  A
C1229      C1230   1.408       .  A
C1229      H1236   1.083       .  S
C1230      S1232   1.805       .  S
S1231      H1234   1.405       .  S
S1232      H1233   1.407       .  S
C1237      C1238   1.408       .  A
C1237      C1242   1.431   1_565  A
C1238      H1247   1.083       .  S
C1239      C1240   1.417   1_455  A
C1239      S1243   1.803   1_445  S
C1241      C1242   1.409       .  A
C1241      H1248   1.083       .  S
C1242      S1244   1.804       .  S
S1243      H1246   1.407   1_565  S
S1244      H1245   1.408   1_545  S
C1249      C1250   1.401       .  A
C1249      C1254   1.406       .  A
C1250      C1251   1.391       .  A
C1250      H1259   1.085       .  S
C1251      C1252   1.410       .  A
C1251      S1255   1.802       .  S
C1252      C1253   1.403       .  A
C1253      C1254   1.392       .  A
C1253      H1260   1.083   1_545  S
C1254      S1256   1.798   1_545  S
S1255      H1258   1.407       .  S
S1256      H1257   1.407   1_565  S
C1261      C1262   1.405       .  A
C1261      C1266   1.412       .  A
C1262      H1271   1.076       .  S
C1263      C1264   1.413       .  A
C1263      S1267   1.798       .  S
C1264      C1265   1.414       .  A
C1265      H1272   1.081       .  S
C1266      S1268   1.803       .  S
S1267      H1270   1.407       .  S
S1268      H1269   1.404       .  S
C1273      C1274   1.399       .  A
C1273      C1278   1.416       .  A
C1274      C1275   1.402       .  A
C1274      H1283   1.084       .  S
C1275      C1276   1.420       .  A
C1275      S1279   1.798       .  S
C1276      C1277   1.403       .  A
C1277      C1278   1.402       .  A
C1277      H1284   1.084       .  S
C1278      S1280   1.803       .  S
S1279      H1282   1.404       .  S
S1280      H1281   1.406       .  S
C1285      C1286   1.402       .  A
C1285      C1290   1.421       .  A
C1286      C1287   1.402       .  A
C1286      H1295   1.084       .  S
C1287      C1288   1.425       .  A
C1287      S1291   1.801       .  S
C1288      C1289   1.401       .  A
C1289      C1290   1.400       .  A
C1289      H1296   1.077       .  S
C1290      S1292   1.812       .  S
S1291      H1294   1.408       .  S
S1292      H1293   1.407       .  S
C1297      C1298   1.401       .  A
C1297      C1766   1.418   1_554  A
C1298      C1299   1.410       .  A
C1298      H1307   1.084       .  S
C1299      C1764   1.428       .  A
C1299      S1303   1.804       .  S
C1300      C1763   1.428       .  A
C1300      C1301   1.403       .  A
C1301      C1302   1.409       .  A
C1301      H1308   1.083       .  S
C1302      C1761   1.420       .  A
C1302      S1304   1.797       .  S
S1303      H1306   1.407       .  S
S1304      H1305   1.406       .  S
C1309      C1310   1.392       .  A
C1309      C1314   1.421       .  A
C1310      H1319   1.084       .  S
C1311      C1776   1.412       .  A
C1311      S1315   1.803       .  S
C1312      C1775   1.420       .  A
C1312      C1313   1.395       .  A
C1313      H1320   1.083       .  S
C1314      S1780   1.808       .  S
S1315      H1782   1.407       .  S
S1316      C1778   1.809       .  S
S1316      H1781   1.407   1_655  S
H1317      S1780   1.407   1_456  S
H1318      S1779   1.406       .  S
C1321      C1322   1.401       .  A
C1321      C1326   1.414       .  A
C1322      C1323   1.392       .  A
C1322      H1331   1.084       .  S
C1323      C1324   1.409       .  A
C1323      S1327   1.800       .  S
C1324      C1325   1.410       .  A
C1325      C1326   1.414       .  A
C1325      H1332   1.084       .  S
C1326      S1328   1.799       .  S
S1327      H1330   1.402       .  S
S1328      H1329   1.406       .  S
C1333      C1798   1.403       .  A
C1333      C1338   1.407       .  A
C1334      C1797   1.402   1_554  A
C1334      C1335   1.400       .  A
C1334      H1343   1.085       .  S
C1335      C1336   1.418       .  A
C1335      S1339   1.800       .  S
C1336      C1801   1.412   1_554  A
C1337      C1800   1.411       .  A
C1337      C1338   1.399       .  A
C1337      H1344   1.084       .  S
C1338      S1340   1.803       .  S
S1339      H1342   1.407       .  S
S1340      H1341   1.405       .  S
C1345      C1346   1.399       .  A
C1345      C1814   1.426   1_544  A
C1346      H1355   1.084       .  S
C1347      C1812   1.426   1_545  A
C1347      S1351   1.800       .  S
C1348      C1811   1.428   1_565  A
C1349      C1350   1.403       .  A
C1349      H1356   1.082       .  S
C1350      C1809   1.425   1_565  A
C1350      S1352   1.812       .  S
S1351      H1354   1.403   1_545  S
S1352      H1353   1.406       .  S
C1357      C1358   1.395   1_556  A
C1357      C1826   1.408       .  A
C1358      C1359   1.387       .  A
C1358      H1367   1.086   1_565  S
C1359      C1824   1.409   1_554  A
C1359      S1363   1.800   1_565  S
C1360      C1823   1.409       .  A
C1360      C1361   1.397       .  A
C1361      C1362   1.389       .  A
C1361      H1368   1.082       .  S
C1362      C1821   1.407       .  A
C1362      S1364   1.805       .  S
S1363      H1366   1.407       .  S
S1364      H1365   1.407       .  S
C1369      C1370   1.396       .  A
C1369      C1374   1.418       .  A
C1370      C1371   1.403       .  A
C1370      H1379   1.077       .  S
C1371      C1372   1.422       .  A
C1371      S1375   1.805   1_565  S
C1372      C1373   1.406       .  A
C1373      C1374   1.409       .  A
C1373      H1380   1.083       .  S
C1374      S1376   1.800       .  S
S1375      H1378   1.407   1_545  S
S1376      H1377   1.406       .  S
C1381      C1382   1.406       .  A
C1381      C1386   1.427       .  A
C1382      C1383   1.401   1_545  A
C1382      H1391   1.083   1_545  S
C1383      C1384   1.418   1_565  A
C1383      S1387   1.805       .  S
C1384      C1385   1.403       .  A
C1385      C1386   1.411       .  A
C1385      H1392   1.084       .  S
C1386      S1388   1.801       .  S
S1387      H1390   1.406       .  S
S1388      H1389   1.408       .  S
O1393     Cr1411   2.069       .  S
O1393      C1401   1.290       .  A
O1394     Cr1411   1.974       .  S
O1394      C1395   1.257       .  A
C1395      O1396   1.266   1_565  A
C1395      C1848   1.496   1_565  S
O1396     Cr1412   2.018   1_545  S
O1397     Cr1412   2.006       .  S
O1397      C1398   1.251       .  A
C1398      O1399   1.235   1_556  A
C1398      C1824   1.441       .  S
O1399     Cr1413   1.937   1_554  S
O1400     Cr1413   1.944       .  S
O1400      C1401   1.268       .  A
C1401      C1785   1.486       .  S
O1402     Cr1411   2.016       .  S
O1402      C1410   1.254       .  A
O1403     Cr1411   2.029       .  S
O1403      C1404   1.278       .  A
C1404      O1405   1.258       .  A
C1404      C1812   1.500   1_556  S
O1405     Cr1412   1.958       .  S
O1406      C1407   1.290       .  A
C1407      O1408   1.277       .  A
C1407      C1833   1.487       .  S
C1410      C1797   1.468       .  S
Cr1411     O1414   1.771       .  S
Cr1412     O1414   1.770       .  S
Cr1413     O1414   1.776       .  S
O1415     Cr1433   2.001       .  S
O1415      C1423   1.262       .  A
O1416     Cr1433   1.940       .  S
O1416      C1417   1.244       .  A
C1417      O1418   1.262       .  A
C1417      C1773   1.459       .  S
O1418     Cr1434   1.986       .  S
O1419     Cr1434   2.006       .  S
O1419      C1420   1.266       .  A
C1420      O1421   1.260       .  A
C1420      C1737   1.478       .  S
O1421     Cr1435   1.991       .  S
O1422     Cr1435   2.025       .  S
O1422      C1423   1.269       .  A
C1423      C1728   1.511       .  S
O1424     Cr1433   1.945       .  S
O1424      C1432   1.251       .  A
O1425      C1426   1.259       .  A
C1426      O1427   1.269       .  A
C1426      C1752   1.494       .  S
O1428     Cr1434   1.991       .  S
O1428      C1429   1.265       .  A
C1429      O1430   1.282       .  A
C1429      C1761   1.496       .  S
O1430     Cr1435   2.030       .  S
O1431     Cr1435   2.041       .  S
O1431      C1432   1.271       .  A
C1432      C1800   1.490       .  S
Cr1433     O1436   1.769       .  S
Cr1434     O1436   1.765       .  S
Cr1435     O1436   1.768       .  S
O1437     Cr1455   2.052       .  S
O1437      C1445   1.278       .  A
O1438     Cr1455   1.972       .  S
O1438      C1439   1.258       .  A
C1439      O1440   1.264   1_565  A
C1439      C1680   1.480   1_565  S
O1440     Cr1456   2.019   1_545  S
O1441     Cr1456   1.987   1_545  S
O1441      C1442   1.257   1_545  A
C1442      O1443   1.253       .  A
C1442      C1713   1.444   1_565  S
O1443     Cr1457   1.952       .  S
O1444     Cr1457   1.953       .  S
O1444      C1445   1.256       .  A
C1445      C1788   1.480       .  S
O1446     Cr1455   2.010       .  S
O1446      C1454   1.266       .  A
O1447     Cr1455   2.057       .  S
O1447      C1448   1.280       .  A
C1448      O1449   1.257       .  A
C1448      C1701   1.513       .  S
O1449     Cr1456   1.958       .  S
O1450     Cr1456   2.026       .  S
O1450      C1451   1.272       .  A
C1451      O1452   1.264       .  A
C1451      C1689   1.478       .  S
O1452     Cr1457   1.981       .  S
O1453     Cr1457   1.969       .  S
O1453      C1454   1.253       .  A
C1454      C1665   1.475       .  S
Cr1455     O1458   1.778       .  S
Cr1456     O1458   1.779       .  S
Cr1457     O1458   1.779       .  S
O1459     Cr1477   2.005       .  S
O1459      C1467   1.264       .  A
O1460     Cr1477   1.950       .  S
O1460      C1461   1.247       .  A
C1461      O1462   1.257       .  A
C1461      C1632   1.469       .  S
O1462     Cr1478   1.977       .  S
O1463     Cr1478   2.007       .  S
O1463      C1464   1.267       .  A
C1464      O1465   1.259       .  A
C1464      C1656   1.473       .  S
O1465     Cr1479   1.986       .  S
O1466     Cr1479   2.024       .  S
O1466      C1467   1.270       .  A
C1467      C1725   1.506       .  S
O1468     Cr1477   1.963       .  S
O1468      C1476   1.255       .  A
O1469     Cr1477   2.009       .  S
O1469      C1470   1.265       .  A
C1470      O1471   1.270       .  A
C1470      C1641   1.501       .  S
O1471     Cr1478   1.997       .  S
O1472     Cr1478   1.977       .  S
O1472      C1473   1.262       .  A
C1473      O1474   1.285       .  A
C1473      C1620   1.518       .  S
O1474     Cr1479   2.050       .  S
O1475     Cr1479   2.031       .  S
O1475      C1476   1.269       .  A
C1476      C1668   1.484       .  S
Cr1477     O1480   1.779       .  S
Cr1478     O1480   1.774       .  S
Cr1479     O1480   1.776       .  S
O1481     Cr1499   2.030       .  S
O1481      C1489   1.270       .  A
O1482     Cr1499   1.970       .  S
O1482      C1483   1.255       .  A
C1483      O1484   1.268       .  A
C1483      C1749   1.490       .  S
O1484     Cr1500   2.007       .  S
O1485     Cr1500   1.987       .  S
O1485      C1486   1.260       .  A
C1486      O1487   1.244       .  A
C1486      C1629   1.462       .  S
O1487     Cr1501   1.950       .  S
O1488     Cr1501   1.994       .  S
O1488      C1489   1.257       .  A
C1489      C1593   1.514       .  S
O1490     Cr1499   2.029       .  S
O1490      C1498   1.272       .  A
O1491     Cr1499   2.044       .  S
O1491      C1492   1.286       .  A
C1492      O1493   1.262       .  A
C1492      C1617   1.513       .  S
O1493     Cr1500   1.981       .  S
O1494     Cr1500   1.995       .  S
O1494      C1495   1.267       .  A
C1495      O1496   1.266       .  A
C1495      C1740   1.486       .  S
O1496     Cr1501   2.008       .  S
O1497     Cr1501   1.962       .  S
O1497      C1498   1.257       .  A
C1498      C1605   1.489       .  S
Cr1499     O1502   1.765       .  S
Cr1500     O1502   1.771       .  S
Cr1501     O1502   1.776       .  S
O1503     Cr1521   2.007       .  S
O1503      C1511   1.262       .  A
O1504     Cr1521   1.938       .  S
O1504      C1505   1.243       .  A
C1505      O1506   1.262       .  A
C1505      C1716   1.454       .  S
O1506     Cr1522   2.013       .  S
O1507     Cr1522   2.017   1_565  S
O1507      C1508   1.271   1_565  A
C1508      O1509   1.262       .  A
C1508      C1836   1.500   1_545  S
O1509     Cr1523   1.994       .  S
O1510     Cr1523   2.012       .  S
O1510      C1511   1.265       .  A
C1511      C1581   1.509       .  S
O1512     Cr1521   1.954       .  S
O1512      C1520   1.255       .  A
O1513     Cr1521   2.025       .  S
O1513      C1514   1.267       .  A
C1514      O1515   1.267       .  A
C1514      C1845   1.509       .  S
O1515     Cr1522   1.995       .  S
O1516     Cr1522   1.989       .  S
O1516      C1517   1.265       .  A
C1517      O1518   1.279       .  A
C1517      C1704   1.489       .  S
O1518     Cr1523   2.020       .  S
O1519     Cr1523   2.042       .  S
O1519      C1520   1.274       .  A
C1520      C1608   1.492       .  S
Cr1521     O1524   1.766       .  S
Cr1522     O1524   1.775       .  S
Cr1523     O1524   1.768       .  S
O1525     Cr1543   1.981       .  S
O1525      C1533   1.263       .  A
O1526     Cr1543   1.954       .  S
O1526      C1527   1.254       .  A
C1527      O1528   1.257   1_545  A
C1527      C1821   1.429   1_545  S
O1528     Cr1544   1.972   1_565  S
O1529     Cr1544   2.033   1_565  S
O1529      C1530   1.267   1_565  A
C1530      O1531   1.257       .  A
C1530      C1692   1.484   1_545  S
O1531     Cr1545   1.977       .  S
O1532     Cr1545   2.046       .  S
O1532      C1533   1.276       .  A
C1533      C1584   1.511       .  S
O1534     Cr1543   1.976       .  S
O1534      C1542   1.256       .  A
O1535      C1536   1.268       .  A
C1536      O1537   1.270       .  A
C1536      C1677   1.483       .  S
O1538     Cr1544   1.945       .  S
O1538      C1539   1.249       .  A
C1539      O1540   1.278       .  A
C1539      C1809   1.490       .  S
O1540     Cr1545   2.060       .  S
O1541     Cr1545   1.993       .  S
O1541      C1542   1.266       .  A
C1542      C1569   1.481       .  S
Cr1543     O1546   1.767       .  S
Cr1544     O1546   1.768       .  S
Cr1545     O1546   1.770       .  S
O1547     Cr1565   2.060       .  S
O1547      C1555   1.280       .  A
O1548     Cr1565   1.961       .  S
O1548      C1549   1.250       .  A
C1549      O1550   1.265       .  A
C1549      C1644   1.494       .  S
O1550     Cr1566   2.031       .  S
O1551     Cr1566   2.002       .  S
O1551      C1552   1.262       .  A
C1552      O1553   1.249   1_556  A
C1552      C1776   1.450       .  S
O1553     Cr1567   1.943   1_554  S
O1554     Cr1567   1.942       .  S
O1554      C1555   1.257       .  A
C1555      C1596   1.499       .  S
O1556     Cr1565   2.007       .  S
O1556      C1564   1.261       .  A
O1557     Cr1565   2.062       .  S
O1557      C1558   1.285       .  A
C1558      O1559   1.260   1_556  A
C1558      C1764   1.508   1_556  S
O1559     Cr1566   1.956   1_554  S
O1560      C1561   1.277       .  A
C1561      O1562   1.268       .  A
C1561      C1653   1.483       .  S
Cr1565     O1568   1.778       .  S
Cr1566     O1568   1.781       .  S
Cr1567     O1568   1.778       .  S
C1569      C1574   1.423       .  A
C1570      C1571   1.393       .  A
C1570      H1579   1.084       .  S
C1571      S1575   1.803       .  S
C1572      C1573   1.398       .  A
C1573      C1574   1.399       .  A
C1573      H1580   1.084       .  S
C1574      S1576   1.804       .  S
S1575      H1578   1.402       .  S
S1576      H1577   1.407       .  S
C1581      C1582   1.412       .  A
C1581      C1586   1.414       .  A
C1582      C1583   1.410       .  A
C1582      H1591   1.084       .  S
C1583      C1584   1.419       .  A
C1583      S1587   1.802       .  S
C1584      C1585   1.414       .  A
C1585      C1586   1.409       .  A
C1585      H1592   1.083       .  S
C1586      S1588   1.798       .  S
S1587      H1590   1.407       .  S
S1588      H1589   1.408       .  S
C1593      C1594   1.420       .  A
C1593      C1598   1.412       .  A
C1594      H1603   1.083       .  S
C1595      C1596   1.415       .  A
C1595      S1599   1.797       .  S
C1596      C1597   1.405       .  A
C1597      H1604   1.085       .  S
C1598      S1600   1.799       .  S
S1599      H1602   1.404       .  S
S1600      H1601   1.407       .  S
C1605      C1606   1.407       .  A
C1605      C1610   1.414       .  A
C1606      C1607   1.404       .  A
C1606      H1615   1.083       .  S
C1607      C1608   1.416       .  A
C1607      S1611   1.810       .  S
C1608      C1609   1.408       .  A
C1609      C1610   1.405       .  A
C1609      H1616   1.084       .  S
C1610      S1612   1.803       .  S
S1611      H1614   1.407       .  S
S1612      H1613   1.407       .  S
C1617      C1618   1.422       .  A
C1617      C1622   1.409       .  A
C1618      C1619   1.415       .  A
C1618      H1627   1.084       .  S
C1619      C1620   1.412       .  A
C1619      S1623   1.798       .  S
C1620      C1621   1.421       .  A
C1621      C1622   1.409       .  A
C1621      H1628   1.083       .  S
C1622      S1624   1.798       .  S
S1623      H1626   1.407       .  S
S1624      H1625   1.407       .  S
C1629      C1630   1.401       .  A
C1629      C1634   1.415   1_655  A
C1630      H1639   1.083       .  S
C1631      C1632   1.418       .  A
C1631      S1635   1.809       .  S
C1632      C1633   1.405       .  A
C1633      H1640   1.082       .  S
C1634      S1636   1.812       .  S
S1635      H1638   1.407       .  S
S1636      H1637   1.407       .  S
C1641      C1642   1.403       .  A
C1641      C1646   1.426       .  A
C1642      C1643   1.399       .  A
C1642      H1651   1.084       .  S
C1643      C1644   1.420       .  A
C1643      S1647   1.803       .  S
C1644      C1645   1.403       .  A
C1645      C1646   1.410       .  A
C1645      H1652   1.084       .  S
C1646      S1648   1.802       .  S
S1647      H1650   1.402       .  S
S1648      H1649   1.408       .  S
C1653      C1654   1.407       .  A
C1653      C1658   1.413       .  A
C1654      C1655   1.397       .  A
C1654      H1663   1.084       .  S
C1655      C1656   1.408       .  A
C1655      S1659   1.804       .  S
C1656      C1657   1.408       .  A
C1657      C1658   1.409       .  A
C1657      H1664   1.084       .  S
C1658      S1660   1.803       .  S
S1659      H1662   1.405       .  S
S1660      H1661   1.403       .  S
C1665      C1666   1.406       .  A
C1665      C1670   1.411       .  A
C1666      C1667   1.401       .  A
C1666      H1675   1.084       .  S
C1667      C1668   1.411       .  A
C1667      S1671   1.803       .  S
C1668      C1669   1.409       .  A
C1669      C1670   1.406       .  A
C1669      H1676   1.084       .  S
C1670      S1672   1.804       .  S
S1671      H1674   1.407       .  S
S1672      H1673   1.405       .  S
C1677      C1678   1.408       .  A
C1677      C1682   1.412       .  A
C1678      C1679   1.408       .  A
C1678      H1687   1.084       .  S
C1679      C1680   1.413       .  A
C1679      S1683   1.803       .  S
C1680      C1681   1.403       .  A
C1681      C1682   1.399       .  A
C1681      H1688   1.084   1_545  S
C1682      S1684   1.803       .  S
S1683      H1686   1.402       .  S
S1684      H1685   1.407       .  S
C1689      C1690   1.399       .  A
C1689      C1694   1.413       .  A
C1690      C1691   1.402       .  A
C1690      H1699   1.084       .  S
C1691      C1692   1.415       .  A
C1691      S1695   1.794       .  S
C1692      C1693   1.403       .  A
C1693      C1694   1.407       .  A
C1693      H1700   1.083       .  S
C1694      S1696   1.805       .  S
S1695      H1698   1.405       .  S
S1696      H1697   1.407       .  S
C1701      C1702   1.409       .  A
C1701      C1706   1.429   1_565  A
C1702      H1711   1.083       .  S
C1703      C1704   1.417   1_455  A
C1703      S1707   1.803   1_455  S
C1705      C1706   1.409       .  A
C1705      H1712   1.083       .  S
C1706      S1708   1.803       .  S
S1707      H1710   1.407       .  S
S1708      H1709   1.408   1_545  S
C1713      C1714   1.401       .  A
C1713      C1718   1.406       .  A
C1714      C1715   1.390       .  A
C1714      H1723   1.085       .  S
C1715      C1716   1.407       .  A
C1715      S1719   1.802       .  S
C1716      C1717   1.403       .  A
C1717      C1718   1.392       .  A
C1717      H1724   1.083   1_545  S
C1718      S1720   1.797   1_545  S
S1719      H1722   1.407       .  S
S1720      H1721   1.407   1_565  S
C1725      C1726   1.410       .  A
C1725      C1730   1.412       .  A
C1726      H1735   1.080       .  S
C1727      C1728   1.415       .  A
C1727      S1731   1.805       .  S
C1728      C1729   1.415       .  A
C1729      H1736   1.082       .  S
C1730      S1732   1.801       .  S
S1731      H1734   1.408       .  S
S1732      H1733   1.407       .  S
C1737      C1738   1.399       .  A
C1737      C1742   1.416       .  A
C1738      C1739   1.402       .  A
C1738      H1747   1.084       .  S
C1739      C1740   1.419       .  A
C1739      S1743   1.797       .  S
C1740      C1741   1.402       .  A
C1741      C1742   1.401       .  A
C1741      H1748   1.084       .  S
C1742      S1744   1.803       .  S
S1743      H1746   1.404       .  S
S1744      H1745   1.406       .  S
C1749      C1750   1.400       .  A
C1749      C1754   1.426       .  A
C1750      C1751   1.400       .  A
C1750      H1759   1.084       .  S
C1751      C1752   1.425       .  A
C1751      S1755   1.802       .  S
C1752      C1753   1.399       .  A
C1753      C1754   1.399       .  A
C1753      H1760   1.079       .  S
C1754      S1756   1.814       .  S
S1755      H1758   1.408       .  S
S1756      H1757   1.407       .  S
C1761      C1762   1.400       .  A
C1762      C1763   1.409       .  A
C1762      H1771   1.084       .  S
C1763      S1767   1.804       .  S
C1764      C1765   1.405   1_554  A
C1765      C1766   1.407       .  A
C1765      H1772   1.083       .  S
C1766      S1768   1.800       .  S
S1767      H1770   1.406       .  S
S1768      H1769   1.407       .  S
C1773      C1774   1.391       .  A
C1773      C1778   1.421       .  A
C1774      H1783   1.083       .  S
C1775      S1779   1.810       .  S
C1776      C1777   1.396       .  A
C1777      H1784   1.083       .  S
C1785      C1786   1.401       .  A
C1785      C1790   1.414       .  A
C1786      C1787   1.392       .  A
C1786      H1795   1.083       .  S
C1787      C1788   1.409       .  A
C1787      S1791   1.800       .  S
C1788      C1789   1.411       .  A
C1789      C1790   1.415       .  A
C1789      H1796   1.084       .  S
C1790      S1792   1.800       .  S
S1791      H1794   1.402       .  S
S1792      H1793   1.405       .  S
C1797      C1802   1.408       .  A
C1798      C1799   1.401       .  A
C1798      H1807   1.085       .  S
C1799      C1800   1.418       .  A
C1799      S1803   1.800       .  S
C1801      C1802   1.401       .  A
C1801      H1808   1.084       .  S
C1802      S1804   1.803       .  S
S1803      H1806   1.407       .  S
S1804      H1805   1.405       .  S
C1809      C1810   1.397       .  A
C1810      H1819   1.084       .  S
C1811      S1815   1.802       .  S
C1813      C1814   1.403       .  A
C1813      H1820   1.082       .  S
C1814      S1816   1.812       .  S
S1815      H1818   1.404       .  S
S1816      H1817   1.406       .  S
C1821      C1822   1.395       .  A
C1822      C1823   1.386       .  A
C1822      H1831   1.086   1_565  S
C1823      S1827   1.801   1_565  S
C1824      C1825   1.397       .  A
C1825      C1826   1.390       .  A
C1825      H1832   1.079       .  S
C1826      S1828   1.805       .  S
S1827      H1830   1.407       .  S
S1828      H1829   1.407       .  S
C1833      C1834   1.395       .  A
C1833      C1838   1.418       .  A
C1834      C1835   1.404       .  A
C1834      H1843   1.080       .  S
C1835      C1836   1.424       .  A
C1835      S1839   1.807   1_565  S
C1836      C1837   1.405       .  A
C1837      C1838   1.409       .  A
C1837      H1844   1.083       .  S
C1838      S1840   1.800       .  S
S1839      H1842   1.407       .  S
S1840      H1841   1.406       .  S
C1845      C1846   1.406       .  A
C1845      C1850   1.427       .  A
C1846      C1847   1.401   1_545  A
C1846      H1855   1.082       .  S
C1847      C1848   1.417   1_565  A
C1847      S1851   1.804       .  S
C1848      C1849   1.404       .  A
C1849      C1850   1.412       .  A
C1849      H1856   1.083       .  S
C1850      S1852   1.801       .  S
S1851      H1854   1.406       .  S
S1852      H1853   1.408       .  S
