geometry optimzed in LAMMPS
_audit_creation_date              2020-12-01 
_audit_creation_method            'lammps2cif' 
_symmetry_space_group_name_H-M    'P1' 
_symmetry_Int_Tables_number       1 
_symmetry_cell_setting            triclinic 
loop_ 
_symmetry_equiv_pos_as_xyz 
  x,y,z 
_cell_length_a                    47.68450654 
_cell_length_b                    27.407935978363128 
_cell_length_c                    27.574455681857188 
_cell_angle_alpha                 89.99980470211986 
_cell_angle_beta                  89.99772707363536 
_cell_angle_gamma                 89.99790264094729 
loop_ 
_atom_site_label 
_atom_site_type_symbol 
_atom_site_fract_x 
_atom_site_fract_y 
_atom_site_fract_z 
_atom_site_charge 
Fe1        Fe  0.43079148  0.49096393  0.36654626     1.65800
Fe2        Fe  0.43653152  0.38606600  0.42896566     1.73200
Fe3        Fe  0.37668774  0.41427626  0.36736616     1.54400
O4          O  0.35882753  0.48020069  0.38817355    -0.83000
O5          O  0.41738225  0.32098805  0.40339122    -0.81400
O6          O  0.39275957  0.02797806  0.36070520    -0.85600
O7          O  0.42711052  0.47009553  0.29536585    -0.80400
O8          O  0.36765111  0.38627724  0.43611692    -0.82200
O9          O  0.46916869  0.38320718  0.37960080    -0.84900
C10         C  0.40514128  0.45483489  0.27391959     0.95800
C11         C  0.36744985  0.02141368  0.37373918     1.03300
O12         O  0.41440129  0.43033324  0.38778521    -1.13900
O13         O  0.45500832  0.44464553  0.46631914    -0.76300
O14         O  0.43408969  0.51191218  0.43834975    -0.79800
O15         O  0.38345130  0.43970782  0.29666151    -0.80500
C16         C  0.44556618  0.48782016  0.47255769     0.94700
O17         O  0.47122114  0.46339888  0.36841635    -0.78500
O18         O  0.40703630  0.38742758  0.48059931    -0.83700
C19         C  0.39773864  0.31489243  0.37258052     0.97400
C20         C  0.38104497  0.38085840  0.47600361     1.03300
O21         O  0.39087717  0.34860934  0.34390743    -0.79300
C22         C  0.48297451  0.42177452  0.37049247     1.01600
Fe23       Fe  0.43076169  0.00597861  0.62767421     1.65800
Fe24       Fe  0.43656207  0.11093222  0.56534606     1.73200
Fe25       Fe  0.37670389  0.08278556  0.62698036     1.54400
O26         O  0.35877908  0.01687781  0.60621325    -0.83000
O27         O  0.41746565  0.17604868  0.59095392    -0.81400
O28         O  0.39272072  0.46901809  0.63350451    -0.85600
O29         O  0.42710067  0.02675064  0.69888419    -0.80400
O30         O  0.36766644  0.11081978  0.55824335    -0.82200
O31         O  0.46921448  0.11367010  0.61468851    -0.84900
C32         C  0.40514711  0.04203127  0.72036735     0.95800
C33         C  0.36739844  0.47563268  0.62058226     1.03300
O34         O  0.41440447  0.06666750  0.60650706    -1.13900
O35         O  0.45499806  0.05235445  0.52792111    -0.76300
O36         O  0.43404980  0.98509906  0.55584949    -0.79800
O37         O  0.38347706  0.05730327  0.69766480    -0.80500
C38         C  0.44555138  0.00918766  0.52166415     0.94700
O39         O  0.47119870  0.03346486  0.62582942    -0.78500
O40         O  0.40705104  0.10968403  0.51374342    -0.83700
C41         C  0.39781097  0.18215241  0.62174204     0.97400
C42         C  0.38106074  0.11626694  0.51835782     1.03300
O43         O  0.39094790  0.14843645  0.65042081    -0.79300
C44         C  0.48298393  0.07505846  0.62379146     1.01600
Fe45       Fe  0.06599934  0.49095799  0.36675464     1.65800
Fe46       Fe  0.06033863  0.38599377  0.42893721     1.73200
Fe47       Fe  0.12001114  0.41391202  0.36668563     1.54400
O48         O  0.11279068  0.43923267  0.29595824    -0.83000
O49         O  0.09000977  0.38746618  0.48022744    -0.81400
O50         O  0.06930036  0.47040915  0.29554099    -0.85600
O51         O  0.10403598  0.02789615  0.36074069    -0.80400
O52         O  0.10569955  0.34810364  0.34372934    -0.82200
O53         O  0.04190935  0.44454061  0.46632794    -0.84900
C54         C  0.12940902  0.02117668  0.37331825     0.95800
C55         C  0.09101894  0.45478858  0.27366521     1.03300
O56         O  0.08240381  0.43017451  0.38758260    -1.13900
O57         O  0.02760942  0.38316967  0.37974290    -0.76300
O58         O  0.02557021  0.46342081  0.36881420    -0.79800
O59         O  0.13811223  0.47979693  0.38710503    -0.80500
C60         C  0.01382219  0.42177551  0.37064951     0.94700
O61         O  0.06297066  0.01171394  0.43856364    -0.78500
O62         O  0.07936178  0.32080527  0.40354723    -0.83700
C63         C  0.11599275  0.38082445  0.47546678     0.97400
C64         C  0.09896659  0.31456790  0.37272556     1.03300
O65         O  0.12932011  0.38611561  0.43547564    -0.79300
C66         C  0.05142858  0.48762696  0.47267352     1.01600
Fe67       Fe  0.06595400  0.00565836  0.62767795     1.65800
Fe68       Fe  0.06036584  0.11055033  0.56537250     1.73200
Fe69       Fe  0.12000496  0.08259843  0.62764753     1.54400
O70         O  0.11278027  0.05733373  0.69839154    -0.83000
O71         O  0.09002872  0.10893006  0.51407114    -0.81400
O72         O  0.06925785  0.02630483  0.69886671    -0.85600
O73         O  0.10397937  0.46867055  0.63373215    -0.80400
O74         O  0.10573279  0.14842336  0.65059585    -0.82200
O75         O  0.04189148  0.05199465  0.52807253    -0.84900
C76         C  0.12934431  0.47534476  0.62106939     0.95800
C77         C  0.09098925  0.04190474  0.72071510     1.03300
O78         O  0.08239383  0.06638029  0.60677638    -1.13900
O79         O  0.02765251  0.11352358  0.61457859    -0.76300
O80         O  0.02554102  0.03328661  0.62556799    -0.79800
O81         O  0.13805340  0.01669393  0.60721927    -0.80500
C82         C  0.01382927  0.07496529  0.62368724     0.94700
O83         O  0.06292767  0.48482106  0.55588925    -0.78500
O84         O  0.07944257  0.17570784  0.59070746    -0.83700
C85         C  0.11600660  0.11560755  0.51884101     0.97400
C86         C  0.09901958  0.18194928  0.62158014     1.03300
O87         O  0.12932390  0.11036102  0.55884597    -0.79300
C88         C  0.05141022  0.00890305  0.52175112     1.01600
Fe89       Fe  0.18077149  0.24080554  0.36665556     1.65800
Fe90       Fe  0.18656846  0.13585190  0.42898729     1.73200
Fe91       Fe  0.12671264  0.16400985  0.36736083     1.54400
O92         O  0.10879159  0.22992129  0.38812917    -0.83000
O93         O  0.16746760  0.07073934  0.40338422    -0.81400
O94         O  0.14273214  0.27777225  0.36082280    -0.85600
O95         O  0.17711297  0.22003082  0.29544514    -0.80400
O96         O  0.11767467  0.13597977  0.43610387    -0.82200
O97         O  0.21922018  0.13310714  0.37963866    -0.84900
C98         C  0.15515987  0.20475060  0.27396472     0.95800
C99         C  0.11741049  0.27116250  0.37375178     1.03300
O100        O  0.16441303  0.18012014  0.38782721    -1.13900
O101        O  0.20500818  0.19442685  0.46640320    -0.76300
O102        O  0.18405786  0.26168478  0.43848148    -0.79800
O103        O  0.13348851  0.18948719  0.29667176    -0.80500
C104        C  0.19556045  0.23759353  0.47266403     0.94700
O105        O  0.22120632  0.21331265  0.36850078    -0.78500
O106        O  0.15705877  0.13710825  0.48059924    -0.83700
C107        C  0.14781386  0.06463792  0.37259642     0.97400
C108        C  0.13106829  0.13052914  0.47598888     1.03300
O109        O  0.14095167  0.09835479  0.34391860    -0.79300
C110        C  0.23299059  0.17171724  0.37053781     1.01600
Fe111      Fe  0.18079445  0.25580516  0.62778228     1.65800
Fe112      Fe  0.18653319  0.36070496  0.56536564     1.73200
Fe113      Fe  0.12668852  0.33249281  0.62696296     1.54400
O114        O  0.10883170  0.26656865  0.60615638    -0.83000
O115        O  0.16737909  0.42578048  0.59093712    -0.81400
O116        O  0.14276360  0.21878950  0.63362570    -0.85600
O117        O  0.17710878  0.27666930  0.69896130    -0.80400
O118        O  0.11765595  0.36049775  0.55821260    -0.82200
O119        O  0.21916232  0.36356908  0.61473739    -0.84900
C120        C  0.15513646  0.29192297  0.72040732     0.95800
C121        C  0.11745315  0.22535663  0.62059816     1.03300
O122        O  0.16440282  0.31643577  0.60654413    -1.13900
O123        O  0.20501781  0.30212692  0.52801642    -0.76300
O124        O  0.18409717  0.23486087  0.55597827    -0.79800
O125        O  0.13344791  0.30705490  0.69766599    -0.80500
C126        C  0.19557466  0.25895533  0.52177250     0.94700
O127        O  0.22122121  0.28337654  0.62591521    -0.78500
O128        O  0.15704249  0.35934047  0.51372828    -0.83700
C129        C  0.14773597  0.43187597  0.62175103     0.97400
C130        C  0.13105135  0.36591793  0.51832581     1.03300
O131        O  0.14087523  0.39815844  0.65042411    -0.79300
C132        C  0.23297033  0.32500366  0.62384501     1.01600
Fe133      Fe  0.31595725  0.24111586  0.36665177     1.65800
Fe134      Fe  0.31036537  0.13623882  0.42897609     1.73200
Fe135      Fe  0.37000697  0.16417162  0.36669850     1.54400
O136        O  0.36279010  0.18942503  0.29595215    -0.83000
O137        O  0.34002315  0.13787513  0.48027969    -0.81400
O138        O  0.31926583  0.22044944  0.29546964    -0.85600
O139        O  0.35398364  0.27809848  0.36059440    -0.80400
O140        O  0.35573176  0.09835043  0.34375401    -0.82200
O141        O  0.29188428  0.19480476  0.46625779    -0.84900
C142        C  0.37934747  0.27142410  0.37326368     0.95800
C143        C  0.34099862  0.20484318  0.27362538     1.03300
O144        O  0.33239572  0.18039873  0.38756659    -1.13900
O145        O  0.27765877  0.13325248  0.37976385    -0.76300
O146        O  0.27554552  0.21348799  0.36876283    -0.79800
O147        O  0.38805541  0.23007563  0.38712096    -0.80500
C148        C  0.26383536  0.17180933  0.37064625     0.94700
O149        O  0.31292571  0.26196933  0.43843654    -0.78500
O150        O  0.32944731  0.07107514  0.40365585    -0.83700
C151        C  0.36600035  0.13118625  0.47550811     0.97400
C152        C  0.34901883  0.06482607  0.37277092     1.03300
O153        O  0.37931880  0.13641690  0.43550139    -0.79300
C154        C  0.30140566  0.23789366  0.47257713     1.01600
Fe155      Fe  0.31599495  0.25582993  0.62757316     1.65800
Fe156      Fe  0.31032935  0.36080175  0.56540122     1.73200
Fe157      Fe  0.37000110  0.33288046  0.62764885     1.54400
O158        O  0.36277578  0.30756163  0.69837632    -0.83000
O159        O  0.34000061  0.35933493  0.51410819    -0.81400
O160        O  0.31929061  0.27636799  0.69879149    -0.85600
O161        O  0.35403095  0.21889215  0.63358592    -0.80400
O162        O  0.35568706  0.39869096  0.65060357    -0.82200
O163        O  0.29190398  0.30225634  0.52800540    -0.84900
C164        C  0.37940496  0.22561365  0.62101664     0.95800
C165        C  0.34100609  0.29199340  0.72066854     1.03300
O166        O  0.33239618  0.31661756  0.60675102    -1.13900
O167        O  0.27760108  0.36361737  0.61460173    -0.76300
O168        O  0.27556676  0.28336397  0.62551607    -0.79800
O169        O  0.38810776  0.26699472  0.60723443    -0.80500
C170        C  0.26381669  0.32500831  0.62368917     0.94700
O171        O  0.31297060  0.23508292  0.55576119    -0.78500
O172        O  0.32934902  0.42599213  0.59079069    -0.83700
C173        C  0.36598436  0.36596392  0.51886561     0.97400
C174        C  0.34895431  0.43222794  0.62160870     1.03300
O175        O  0.37931118  0.36067029  0.55885572    -0.79300
C176        C  0.30142565  0.25917057  0.52165514     1.01600
Fe177      Fe  0.42993436  0.49094269  0.12756873     1.65800
Fe178      Fe  0.43559410  0.38597290  0.06539102     1.73200
Fe179      Fe  0.37592446  0.41389941  0.12764937     1.54400
O180        O  0.38314945  0.43922022  0.19837471    -0.83000
O181        O  0.40592045  0.38744438  0.01410450    -0.81400
O182        O  0.42663700  0.47040304  0.19878635    -0.85600
O183        O  0.39189913  0.02788454  0.13358534    -0.80400
O184        O  0.39023504  0.34808751  0.15060416    -0.82200
O185        O  0.45401972  0.44451782  0.02799125    -0.84900
C186        C  0.36652568  0.02116508  0.12101450     0.95800
C187        C  0.40491947  0.45478485  0.22066505     1.03300
O188        O  0.41353046  0.43015765  0.10674701    -1.13900
O189        O  0.46832503  0.38315087  0.11458371    -0.76300
O190        O  0.47036191  0.46340280  0.12550872    -0.79800
O191        O  0.35782237  0.47978537  0.10723200    -0.80500
C192        C  0.48211017  0.42175666  0.12368030     0.94700
O193        O  0.43295947  0.01169358  0.05575804    -0.78500
O194        O  0.41657274  0.32078531  0.09078673    -0.83700
C195        C  0.37993654  0.38081739  0.01886676     0.97400
C196        C  0.39696795  0.31455020  0.12160903     1.03300
O197        O  0.36661131  0.38610880  0.05886009    -0.79300
C198        C  0.44449973  0.48760557  0.02164645     1.01600
Fe199      Fe  0.42995943  0.00566234  0.86664810     1.65800
Fe200      Fe  0.43555879  0.11054197  0.92896366     1.73200
Fe201      Fe  0.37591467  0.08261822  0.86669578     1.54400
O202        O  0.38313100  0.05736142  0.79594876    -0.83000
O203        O  0.40590257  0.10891293  0.98027170    -0.81400
O204        O  0.42665246  0.02632431  0.79546484    -0.85600
O205        O  0.39193102  0.46868676  0.86059815    -0.80400
O206        O  0.39019420  0.14843768  0.84374891    -0.82200
O207        O  0.45403675  0.05197357  0.96624663    -0.84900
C208        C  0.36656715  0.47536508  0.87326780     0.95800
C209        C  0.40492140  0.04193461  0.77362123     1.03300
O210        O  0.41352483  0.06638419  0.88756034    -1.13900
O211        O  0.46826488  0.11351823  0.87974634    -0.76300
O212        O  0.47037322  0.03328131  0.86875462    -0.79800
O213        O  0.35786053  0.01671647  0.88712108    -0.80500
C214        C  0.48208667  0.07495712  0.87063751     0.94700
O215        O  0.43299015  0.48481170  0.93843328    -0.78500
O216        O  0.41647972  0.17571049  0.90364592    -0.83700
C217        C  0.37992576  0.11560516  0.97550426     0.97400
C218        C  0.39690727  0.18196147  0.87276559     1.03300
O219        O  0.36660608  0.11037559  0.93550027    -0.79300
C220        C  0.44451495  0.00888492  0.97256904     1.01600
Fe221      Fe  0.06513697  0.49094671  0.12778904     1.65800
Fe222      Fe  0.05939466  0.38604897  0.06537362     1.73200
Fe223      Fe  0.11924116  0.41425410  0.12696194     1.54400
O224        O  0.13709977  0.48017665  0.10614947    -0.83000
O225        O  0.07854830  0.32097099  0.09094204    -0.81400
O226        O  0.10316924  0.02795766  0.13362563    -0.85600
O227        O  0.06882255  0.47008001  0.19896748    -0.80400
O228        O  0.12827091  0.38624554  0.05821048    -0.82200
O229        O  0.02676472  0.38318775  0.11474785    -0.84900
C230        C  0.09079450  0.45482557  0.22041115     0.95800
C231        C  0.12847898  0.02138969  0.12059103     1.03300
O232        O  0.08152693  0.43031518  0.10654856    -1.13900
O233        O  0.04091054  0.44462907  0.02802857    -0.76300
O234        O  0.06183333  0.51189391  0.05598576    -0.79800
O235        O  0.11248337  0.43969398  0.19766685    -0.80500
C236        C  0.05035235  0.48780160  0.02178355     0.94700
O237        O  0.02470858  0.46338032  0.12592470    -0.78500
O238        O  0.08888428  0.38741221  0.01373194    -0.83700
C239        C  0.09819139  0.31487304  0.12175335     0.97400
C240        C  0.11487449  0.38082668  0.01832609     1.03300
O241        O  0.10505267  0.34858959  0.15042628    -0.79300
C242        C  0.01295707  0.42175545  0.12384983     1.01600
Fe243      Fe  0.06514718  0.00594437  0.86666271     1.65800
Fe244      Fe  0.05935574  0.11090281  0.92899037     1.73200
Fe245      Fe  0.11921071  0.08273056  0.86736053     1.54400
O246        O  0.13712553  0.01681866  0.88813453    -0.83000
O247        O  0.07845811  0.17600922  0.90337608    -0.81400
O248        O  0.10318497  0.46897110  0.86082752    -0.85600
O249        O  0.06880824  0.02671538  0.79545156    -0.80400
O250        O  0.12825110  0.11076540  0.93609770    -0.82200
O251        O  0.02670323  0.11364848  0.87964634    -0.84900
C252        C  0.09076334  0.04198990  0.77397016     0.95800
C253        C  0.12850641  0.47557905  0.87375547     1.03300
O254        O  0.08150869  0.06662867  0.88783038    -1.13900
O255        O  0.04091605  0.05233200  0.96641636    -0.76300
O256        O  0.06185986  0.98506904  0.93848898    -0.79800
O257        O  0.11243509  0.05724837  0.79667559    -0.80500
C258        C  0.05036237  0.00916396  0.97267516     0.94700
O259        O  0.02471332  0.03344338  0.86850833    -0.78500
O260        O  0.08886694  0.10965052  0.98059791    -0.83700
C261        C  0.09811462  0.18210570  0.87258980     0.97400
C262        C  0.11485814  0.11622340  0.97598352     1.03300
O263        O  0.10497776  0.14838683  0.84391421    -0.79300
C264        C  0.01293158  0.07504120  0.87054153     1.01600
Fe265      Fe  0.17997345  0.24108961  0.12766967     1.65800
Fe266      Fe  0.18556410  0.13620079  0.06535574     1.73200
Fe267      Fe  0.12592405  0.16414792  0.12764051     1.54400
O268        O  0.13314637  0.18940650  0.19838574    -0.83000
O269        O  0.15589987  0.13782309  0.01405751    -0.81400
O270        O  0.17666723  0.22044051  0.19885935    -0.85600
O271        O  0.14194820  0.27807744  0.13372551    -0.80400
O272        O  0.14019894  0.09832329  0.15058351    -0.82200
O273        O  0.20403930  0.19475787  0.02805898    -0.84900
C274        C  0.11658306  0.27140332  0.12106757     0.95800
C275        C  0.15493595  0.20483686  0.22070888     1.03300
O276        O  0.16353519  0.18036835  0.10676543    -1.13900
O277        O  0.21827859  0.13322653  0.11455770    -0.76300
O278        O  0.22038543  0.21346251  0.12556047    -0.79800
O279        O  0.10787391  0.23005380  0.10721914    -0.80500
C280        C  0.23209876  0.17178582  0.12367713     0.94700
O281        O  0.18300244  0.26192956  0.05588070    -0.78500
O282        O  0.16648777  0.07104082  0.09068916    -0.83700
C283        C  0.12992176  0.13114491  0.01883205     0.97400
C284        C  0.14691203  0.06479778  0.12156665     1.03300
O285        O  0.11660537  0.13638980  0.05883950    -0.79300
C286        C  0.19451960  0.23784860  0.02174000     1.01600
Fe287      Fe  0.17992885  0.25579180  0.86674681     1.65800
Fe288      Fe  0.18558246  0.36075369  0.92893032     1.73200
Fe289      Fe  0.12591366  0.33283057  0.86668295     1.54400
O290        O  0.13313759  0.30751163  0.79595507    -0.83000
O291        O  0.15591318  0.35926660  0.98022412    -0.81400
O292        O  0.17662954  0.27634128  0.79553456    -0.85600
O293        O  0.14189362  0.21884771  0.86073246    -0.80400
O294        O  0.14022145  0.39864162  0.84372688    -0.82200
O295        O  0.20401803  0.30220967  0.96631287    -0.84900
C296        C  0.11651987  0.22556573  0.87331123     0.95800
C297        C  0.15491081  0.29195906  0.77366071     1.03300
O298        O  0.16352067  0.31657172  0.88757626    -1.13900
O299        O  0.21830845  0.36359152  0.87973005    -0.76300
O300        O  0.22035573  0.28334029  0.86880694    -0.79800
O301        O  0.10781580  0.26694381  0.88710188    -0.80500
C302        C  0.23209990  0.32498926  0.87064236     0.94700
O303        O  0.18295651  0.23503562  0.93855545    -0.78500
O304        O  0.16655367  0.42593828  0.90354882    -0.83700
C305        C  0.12993102  0.36591379  0.97546583     0.97400
C306        C  0.14695098  0.43217555  0.87272615     1.03300
O307        O  0.11660359  0.36062497  0.93547577    -0.79300
C308        C  0.19449924  0.25912360  0.97266225     1.01600
Fe309      Fe  0.31516154  0.24079311  0.12768179     1.65800
Fe310      Fe  0.30936799  0.13584671  0.06534737     1.73200
Fe311      Fe  0.36922172  0.16399197  0.12698272     1.54400
O312        O  0.38714485  0.22990095  0.10621622    -0.83000
O313        O  0.32847038  0.07073216  0.09094401    -0.81400
O314        O  0.35320176  0.27775778  0.13351261    -0.85600
O315        O  0.31882026  0.22001825  0.19888985    -0.80400
O316        O  0.37826053  0.13596109  0.05824273    -0.82200
O317        O  0.27671728  0.13309108  0.11469319    -0.84900
C318        C  0.34077412  0.20474221  0.22037183     0.95800
C319        C  0.37852442  0.27114497  0.12058678     1.03300
O320        O  0.33152191  0.18010873  0.10651187    -1.13900
O321        O  0.29092548  0.19442468  0.02793390    -0.76300
O322        O  0.31187516  0.26167788  0.05585854    -0.79800
O323        O  0.36244547  0.18947229  0.19766832    -0.80500
C324        C  0.30037180  0.23759159  0.02167534     0.94700
O325        O  0.27472617  0.21329577  0.12583486    -0.78500
O326        O  0.33887798  0.13711646  0.01374329    -0.83700
C327        C  0.34812001  0.06462584  0.12173852     0.97400
C328        C  0.36486715  0.13052486  0.01835643     1.03300
O329        O  0.35497896  0.09833939  0.15042158    -0.79300
C330        C  0.26294397  0.17169904  0.12379325     1.01600
Fe331      Fe  0.31513205  0.25581703  0.86655521     1.65800
Fe332      Fe  0.30938584  0.36071690  0.92897613     1.73200
Fe333      Fe  0.36923137  0.33251371  0.86736763     1.54400
O334        O  0.38709668  0.26658934  0.88816781    -0.83000
O335        O  0.32853128  0.42579970  0.90339992    -0.81400
O336        O  0.35316462  0.21880599  0.86071490    -0.85600
O337        O  0.31881413  0.27668165  0.79537247    -0.80400
O338        O  0.37826724  0.36050965  0.93611793    -0.82200
O339        O  0.27674838  0.36356866  0.87961417    -0.84900
C340        C  0.34078220  0.29194777  0.77392357     0.95800
C341        C  0.37847495  0.22537371  0.87373952     1.03300
O342        O  0.33151867  0.31645107  0.88779274    -1.13900
O343        O  0.29091211  0.30213494  0.96633347    -0.76300
O344        O  0.31183169  0.23487005  0.93835915    -0.79800
O345        O  0.36246959  0.30708444  0.79666320    -0.80500
C346        C  0.30035523  0.25896068  0.97256937     0.94700
O347        O  0.27470289  0.28337689  0.86842275    -0.78500
O348        O  0.33888206  0.35936195  0.98060635    -0.83700
C349        C  0.34817518  0.43189668  0.87258737     0.97400
C350        C  0.36487388  0.36592796  0.97600688     1.03300
O351        O  0.35503695  0.39817973  0.84391361    -0.79300
C352        C  0.26294699  0.32499856  0.87049768     1.01600
Fe353      Fe  0.43079150  0.99096400  0.36654627     1.65800
Fe354      Fe  0.43653156  0.88606591  0.42896568     1.73200
Fe355      Fe  0.37668788  0.91427629  0.36736615     1.54400
O356        O  0.35882755  0.98020059  0.38817351    -0.83000
O357        O  0.41738232  0.82098796  0.40339120    -0.81400
O358        O  0.39275958  0.52797813  0.36070519    -0.85600
O359        O  0.42711064  0.97009559  0.29536581    -0.80400
O360        O  0.36765116  0.88627730  0.43611691    -0.82200
O361        O  0.46916869  0.88320721  0.37960077    -0.84900
C362        C  0.40514140  0.95483497  0.27391958     0.95800
C363        C  0.36744984  0.52141377  0.37373918     1.03300
O364        O  0.41440138  0.93033324  0.38778524    -1.13900
O365        O  0.45500837  0.94464560  0.46631908    -0.76300
O366        O  0.43408972  0.01191231  0.43834974    -0.79800
O367        O  0.38345145  0.93970788  0.29666155    -0.80500
C368        C  0.44556622  0.98782023  0.47255767     0.94700
O369        O  0.47122114  0.96339897  0.36841637    -0.78500
O370        O  0.40703633  0.88742759  0.48059932    -0.83700
C371        C  0.39773868  0.81489243  0.37258055     0.97400
C372        C  0.38104499  0.88085845  0.47600360     1.03300
O373        O  0.39087731  0.84860939  0.34390743    -0.79300
C374        C  0.48297450  0.92177460  0.37049248     1.01600
Fe375      Fe  0.43076165  0.50597860  0.62767419     1.65800
Fe376      Fe  0.43656205  0.61093221  0.56534605     1.73200
Fe377      Fe  0.37670386  0.58278561  0.62698035     1.54400
O378        O  0.35877907  0.51687779  0.60621329    -0.83000
O379        O  0.41746555  0.67604859  0.59095375    -0.81400
O380        O  0.39272071  0.96901814  0.63350451    -0.85600
O381        O  0.42710062  0.52675047  0.69888416    -0.80400
O382        O  0.36766646  0.61081983  0.55824330    -0.82200
O383        O  0.46921444  0.61367017  0.61468852    -0.84900
C384        C  0.40514707  0.54203120  0.72036731     0.95800
C385        C  0.36739844  0.97563273  0.62058226     1.03300
O386        O  0.41440442  0.56666747  0.60650701    -1.13900
O387        O  0.45499803  0.55235439  0.52792113    -0.76300
O388        O  0.43404969  0.48509905  0.55584947    -0.79800
O389        O  0.38347706  0.55730335  0.69766477    -0.80500
C390        C  0.44555134  0.50918759  0.52166416     0.94700
O391        O  0.47119866  0.53346493  0.62582941    -0.78500
O392        O  0.40705108  0.60968409  0.51374342    -0.83700
C393        C  0.39781094  0.68215239  0.62174200     0.97400
C394        C  0.38106076  0.61626702  0.51835784     1.03300
O395        O  0.39094789  0.64843648  0.65042080    -0.79300
C396        C  0.48298389  0.57505853  0.62379147     1.01600
Fe397      Fe  0.06599940  0.99095804  0.36675466     1.65800
Fe398      Fe  0.06033860  0.88599383  0.42893721     1.73200
Fe399      Fe  0.12001111  0.91391186  0.36668565     1.54400
O400        O  0.11279062  0.93923244  0.29595823    -0.83000
O401        O  0.09000974  0.88746625  0.48022745    -0.81400
O402        O  0.06930038  0.97040923  0.29554101    -0.85600
O403        O  0.10403595  0.52789621  0.36074069    -0.80400
O404        O  0.10569949  0.84810361  0.34372932    -0.82200
O405        O  0.04190933  0.94454068  0.46632789    -0.84900
C406        C  0.12940902  0.52117679  0.37331819     0.95800
C407        C  0.09101892  0.95478857  0.27366521     1.03300
O408        O  0.08240381  0.93017449  0.38758261    -1.13900
O409        O  0.02760941  0.88316973  0.37974290    -0.76300
O410        O  0.02557025  0.96342088  0.36881420    -0.79800
O411        O  0.13811216  0.97979679  0.38710521    -0.80500
C412        C  0.01382222  0.92177557  0.37064951     0.94700
O413        O  0.06297063  0.51171388  0.43856361    -0.78500
O414        O  0.07936174  0.82080533  0.40354724    -0.83700
C415        C  0.11599272  0.88082450  0.47546681     0.97400
C416        C  0.09896655  0.81456791  0.37272557     1.03300
O417        O  0.12932007  0.88611559  0.43547566    -0.79300
C418        C  0.05142860  0.98762698  0.47267353     1.01600
Fe419      Fe  0.06595401  0.50565840  0.62767796     1.65800
Fe420      Fe  0.06036597  0.61055020  0.56537253     1.73200
Fe421      Fe  0.12000507  0.58259848  0.62764754     1.54400
O422        O  0.11278027  0.55733379  0.69839155    -0.83000
O423        O  0.09002878  0.60893005  0.51407116    -0.81400
O424        O  0.06925782  0.52630491  0.69886669    -0.85600
O425        O  0.10397935  0.96867045  0.63373211    -0.80400
O426        O  0.10573280  0.64842338  0.65059590    -0.82200
O427        O  0.04189149  0.55199464  0.52807255    -0.84900
C428        C  0.12934430  0.97534472  0.62106937     0.95800
C429        C  0.09098923  0.54190483  0.72071509     1.03300
O430        O  0.08239398  0.56638017  0.60677633    -1.13900
O431        O  0.02765262  0.61352360  0.61457861    -0.76300
O432        O  0.02554106  0.53328669  0.62556798    -0.79800
O433        O  0.13805347  0.51669396  0.60721926    -0.80500
C434        C  0.01382932  0.57496536  0.62368722     0.94700
O435        O  0.06292767  0.98482104  0.55588927    -0.78500
O436        O  0.07944269  0.67570780  0.59070738    -0.83700
C437        C  0.11600665  0.61560764  0.51884098     0.97400
C438        C  0.09901961  0.68194932  0.62158011     1.03300
O439        O  0.12932400  0.61036109  0.55884592    -0.79300
C440        C  0.05141022  0.50890303  0.52175112     1.01600
Fe441      Fe  0.18077146  0.74080560  0.36665556     1.65800
Fe442      Fe  0.18656854  0.63585196  0.42898722     1.73200
Fe443      Fe  0.12671260  0.66400976  0.36736082     1.54400
O444        O  0.10879156  0.72992127  0.38812915    -0.83000
O445        O  0.16746762  0.57073943  0.40338421    -0.81400
O446        O  0.14273211  0.77777231  0.36082281    -0.85600
O447        O  0.17711293  0.72003089  0.29544514    -0.80400
O448        O  0.11767461  0.63597977  0.43610384    -0.82200
O449        O  0.21922018  0.63310723  0.37963840    -0.84900
C450        C  0.15515983  0.70475066  0.27396473     0.95800
C451        C  0.11741046  0.77116252  0.37375179     1.03300
O452        O  0.16441302  0.68012015  0.38782722    -1.13900
O453        O  0.20500820  0.69442691  0.46640317    -0.76300
O454        O  0.18405783  0.76168483  0.43848150    -0.79800
O455        O  0.13348849  0.68948718  0.29667177    -0.80500
C456        C  0.19556041  0.73759356  0.47266402     0.94700
O457        O  0.22120632  0.71331276  0.36850080    -0.78500
O458        O  0.15705878  0.63710831  0.48059908    -0.83700
C459        C  0.14781386  0.56463800  0.37259643     0.97400
C460        C  0.13106830  0.63052922  0.47598882     1.03300
O461        O  0.14095167  0.59835482  0.34391858    -0.79300
C462        C  0.23299061  0.67171736  0.37053772     1.01600
Fe463      Fe  0.18079444  0.75580522  0.62778225     1.65800
Fe464      Fe  0.18653325  0.86070487  0.56536546     1.73200
Fe465      Fe  0.12668851  0.83249284  0.62696296     1.54400
O466        O  0.10883179  0.76656865  0.60615634    -0.83000
O467        O  0.16737910  0.92578042  0.59093704    -0.81400
O468        O  0.14276365  0.71878948  0.63362577    -0.85600
O469        O  0.17710876  0.77666939  0.69896128    -0.80400
O470        O  0.11765592  0.86049759  0.55821256    -0.82200
O471        O  0.21916233  0.86356909  0.61473728    -0.84900
C472        C  0.15513646  0.79192303  0.72040732     0.95800
C473        C  0.11745324  0.72535659  0.62059818     1.03300
O474        O  0.16440283  0.81643582  0.60654408    -1.13900
O475        O  0.20501784  0.80212682  0.52801634    -0.76300
O476        O  0.18409712  0.73486087  0.55597827    -0.79800
O477        O  0.13344789  0.80705499  0.69766602    -0.80500
C478        C  0.19557463  0.75895526  0.52177248     0.94700
O479        O  0.22122121  0.78337657  0.62591492    -0.78500
O480        O  0.15704249  0.85934049  0.51372820    -0.83700
C481        C  0.14773598  0.93187596  0.62175099     0.97400
C482        C  0.13105133  0.86591792  0.51832579     1.03300
O483        O  0.14087520  0.89815848  0.65042409    -0.79300
C484        C  0.23297035  0.82500367  0.62384480     1.01600
Fe485      Fe  0.31595724  0.74111594  0.36665174     1.65800
Fe486      Fe  0.31036535  0.63623889  0.42897610     1.73200
Fe487      Fe  0.37000694  0.66417167  0.36669849     1.54400
O488        O  0.36279006  0.68942509  0.29595216    -0.83000
O489        O  0.34002320  0.63787519  0.48027965    -0.81400
O490        O  0.31926581  0.72044952  0.29546962    -0.85600
O491        O  0.35398363  0.77809855  0.36059443    -0.80400
O492        O  0.35573172  0.59835052  0.34375401    -0.82200
O493        O  0.29188425  0.69480483  0.46625779    -0.84900
C494        C  0.37934746  0.77142412  0.37326370     0.95800
C495        C  0.34099861  0.70484324  0.27362538     1.03300
O496        O  0.33239569  0.68039880  0.38756659    -1.13900
O497        O  0.27765877  0.63325254  0.37976388    -0.76300
O498        O  0.27554558  0.71348802  0.36876259    -0.79800
O499        O  0.38805538  0.73007563  0.38712094    -0.80500
C500        C  0.26383538  0.67180940  0.37064617     0.94700
O501        O  0.31292567  0.76196940  0.43843653    -0.78500
O502        O  0.32944728  0.57107522  0.40365584    -0.83700
C503        C  0.36600044  0.63118633  0.47550806     0.97400
C504        C  0.34901881  0.56482616  0.37277091     1.03300
O505        O  0.37931888  0.63641697  0.43550140    -0.79300
C506        C  0.30140563  0.73789372  0.47257713     1.01600
Fe507      Fe  0.31599493  0.75582982  0.62757316     1.65800
Fe508      Fe  0.31032935  0.86080182  0.56540122     1.73200
Fe509      Fe  0.37000109  0.83288048  0.62764884     1.54400
O510        O  0.36277576  0.80756171  0.69837631    -0.83000
O511        O  0.34000063  0.85933503  0.51410819    -0.81400
O512        O  0.31929060  0.77636800  0.69879150    -0.85600
O513        O  0.35403094  0.71889209  0.63358593    -0.80400
O514        O  0.35568715  0.89869104  0.65060354    -0.82200
O515        O  0.29190406  0.80225644  0.52800536    -0.84900
C516        C  0.37940494  0.72561363  0.62101661     0.95800
C517        C  0.34100604  0.79199342  0.72066853     1.03300
O518        O  0.33239615  0.81661755  0.60675105    -1.13900
O519        O  0.27760109  0.86361745  0.61460172    -0.76300
O520        O  0.27556682  0.78336402  0.62551606    -0.79800
O521        O  0.38810772  0.76699469  0.60723440    -0.80500
C522        C  0.26381672  0.82500836  0.62368910     0.94700
O523        O  0.31297058  0.73508288  0.55576118    -0.78500
O524        O  0.32934900  0.92599218  0.59079076    -0.83700
C525        C  0.36598437  0.86596398  0.51886561     0.97400
C526        C  0.34895432  0.93222801  0.62160872     1.03300
O527        O  0.37931119  0.86067034  0.55885573    -0.79300
C528        C  0.30142566  0.75917062  0.52165514     1.01600
Fe529      Fe  0.42993434  0.99094273  0.12756873     1.65800
Fe530      Fe  0.43559410  0.88597296  0.06539103     1.73200
Fe531      Fe  0.37592445  0.91389924  0.12764944     1.54400
O532        O  0.38314944  0.93922021  0.19837477    -0.83000
O533        O  0.40592051  0.88744443  0.01410445    -0.81400
O534        O  0.42663698  0.97040313  0.19878630    -0.85600
O535        O  0.39189912  0.52788454  0.13358537    -0.80400
O536        O  0.39023513  0.84808736  0.15060425    -0.82200
O537        O  0.45401970  0.94451786  0.02799125    -0.84900
C538        C  0.36652568  0.52116515  0.12101444     0.95800
C539        C  0.40491948  0.95478491  0.22066504     1.03300
O540        O  0.41353042  0.93015767  0.10674702    -1.13900
O541        O  0.46832507  0.88315092  0.11458366    -0.76300
O542        O  0.47036189  0.96340285  0.12550873    -0.79800
O543        O  0.35782233  0.97978525  0.10723225    -0.80500
C544        C  0.48211018  0.92175674  0.12368031     0.94700
O545        O  0.43295947  0.51169354  0.05575803    -0.78500
O546        O  0.41657272  0.82078530  0.09078665    -0.83700
C547        C  0.37993658  0.88081745  0.01886674     0.97400
C548        C  0.39696798  0.81455010  0.12160900     1.03300
O549        O  0.36661139  0.88610879  0.05886008    -0.79300
C550        C  0.44449973  0.98760559  0.02164645     1.01600
Fe551      Fe  0.42995936  0.50566216  0.86664811     1.65800
Fe552      Fe  0.43555876  0.61054200  0.92896366     1.73200
Fe553      Fe  0.37591464  0.58261819  0.86669578     1.54400
O554        O  0.38313099  0.55736145  0.79594873    -0.83000
O555        O  0.40590254  0.60891304  0.98027170    -0.81400
O556        O  0.42665240  0.52632399  0.79546480    -0.85600
O557        O  0.39193114  0.96868684  0.86059815    -0.80400
O558        O  0.39019418  0.64843759  0.84374895    -0.82200
O559        O  0.45403672  0.55197358  0.96624664    -0.84900
C560        C  0.36656726  0.97536512  0.87326785     0.95800
C561        C  0.40492137  0.54193446  0.77362120     1.03300
O562        O  0.41352482  0.56638416  0.88756029    -1.13900
O563        O  0.46826485  0.61351811  0.87974632    -0.76300
O564        O  0.47037318  0.53328113  0.86875464    -0.79800
O565        O  0.35786045  0.51671648  0.88712107    -0.80500
C566        C  0.48208663  0.57495700  0.87063752     0.94700
O567        O  0.43299030  0.98481162  0.93843323    -0.78500
O568        O  0.41647969  0.67571050  0.90364590    -0.83700
C569        C  0.37992573  0.61560516  0.97550427     0.97400
C570        C  0.39690721  0.68196141  0.87276559     1.03300
O571        O  0.36660604  0.61037543  0.93550031    -0.79300
C572        C  0.44451492  0.50888490  0.97256903     1.01600
Fe573      Fe  0.06513696  0.99094678  0.12778905     1.65800
Fe574      Fe  0.05939467  0.88604906  0.06537362     1.73200
Fe575      Fe  0.11924114  0.91425416  0.12696196     1.54400
O576        O  0.13709974  0.98017669  0.10614941    -0.83000
O577        O  0.07854832  0.82097110  0.09094208    -0.81400
O578        O  0.10316925  0.52795753  0.13362570    -0.85600
O579        O  0.06882252  0.97008010  0.19896749    -0.80400
O580        O  0.12827095  0.88624558  0.05821049    -0.82200
O581        O  0.02676475  0.88318775  0.11474789    -0.84900
C582        C  0.09079447  0.95482564  0.22041115     0.95800
C583        C  0.12847898  0.52138965  0.12059116     1.03300
O584        O  0.08152691  0.93031525  0.10654858    -1.13900
O585        O  0.04091060  0.94462912  0.02802852    -0.76300
O586        O  0.06183336  0.01189395  0.05598578    -0.79800
O587        O  0.11248333  0.93969407  0.19766684    -0.80500
C588        C  0.05035239  0.98780165  0.02178354     0.94700
O589        O  0.02470858  0.96338030  0.12592470    -0.78500
O590        O  0.08888431  0.88741254  0.01373197    -0.83700
C591        C  0.09819141  0.81487314  0.12175341     0.97400
C592        C  0.11487451  0.88082682  0.01832609     1.03300
O593        O  0.10505265  0.84858965  0.15042640    -0.79300
C594        C  0.01295708  0.92175546  0.12384983     1.01600
Fe595      Fe  0.06514715  0.50594438  0.86666270     1.65800
Fe596      Fe  0.05935572  0.61090266  0.92899037     1.73200
Fe597      Fe  0.11921071  0.58273042  0.86736058     1.54400
O598        O  0.13712560  0.51681854  0.88813452    -0.83000
O599        O  0.07845818  0.67600901  0.90337618    -0.81400
O600        O  0.10318495  0.96897112  0.86082749    -0.85600
O601        O  0.06880821  0.52671545  0.79545156    -0.80400
O602        O  0.12825115  0.61076534  0.93609779    -0.82200
O603        O  0.02670318  0.61364840  0.87964635    -0.84900
C604        C  0.09076330  0.54198997  0.77397015     0.95800
C605        C  0.12850636  0.97557913  0.87375544     1.03300
O606        O  0.08150867  0.56662859  0.88783040    -1.13900
O607        O  0.04091602  0.55233192  0.96641640    -0.76300
O608        O  0.06185974  0.48506893  0.93848893    -0.79800
O609        O  0.11243506  0.55724837  0.79667559    -0.80500
C610        C  0.05036230  0.50916385  0.97267515     0.94700
O611        O  0.02471330  0.53344334  0.86850832    -0.78500
O612        O  0.08886694  0.60965052  0.98059790    -0.83700
C613        C  0.09811459  0.68210561  0.87258980     0.97400
C614        C  0.11485814  0.61622343  0.97598356     1.03300
O615        O  0.10497777  0.64838674  0.84391418    -0.79300
C616        C  0.01293154  0.57504111  0.87054153     1.01600
Fe617      Fe  0.17997342  0.74108968  0.12766967     1.65800
Fe618      Fe  0.18556407  0.63620086  0.06535574     1.73200
Fe619      Fe  0.12592401  0.66414796  0.12764051     1.54400
O620        O  0.13314633  0.68940659  0.19838573    -0.83000
O621        O  0.15589983  0.63782320  0.01405754    -0.81400
O622        O  0.17666719  0.72044058  0.19885935    -0.85600
O623        O  0.14194819  0.77807750  0.13372551    -0.80400
O624        O  0.14019889  0.59832336  0.15058354    -0.82200
O625        O  0.20403927  0.69475794  0.02805900    -0.84900
C626        C  0.11658305  0.77140339  0.12106758     0.95800
C627        C  0.15493592  0.70483694  0.22070888     1.03300
O628        O  0.16353515  0.68036842  0.10676542    -1.13900
O629        O  0.21827856  0.63322661  0.11455770    -0.76300
O630        O  0.22038540  0.71346258  0.12556047    -0.79800
O631        O  0.10787388  0.73005389  0.10721913    -0.80500
C632        C  0.23209873  0.67178590  0.12367713     0.94700
O633        O  0.18300240  0.76192963  0.05588070    -0.78500
O634        O  0.16648771  0.57104088  0.09068918    -0.83700
C635        C  0.12992173  0.63114493  0.01883210     0.97400
C636        C  0.14691201  0.56479781  0.12156668     1.03300
O637        O  0.11660534  0.63638965  0.05883956    -0.79300
C638        C  0.19451956  0.73784866  0.02174000     1.01600
Fe639      Fe  0.17992883  0.75579176  0.86674682     1.65800
Fe640      Fe  0.18558244  0.86075372  0.92893033     1.73200
Fe641      Fe  0.12591365  0.83283059  0.86668296     1.54400
O642        O  0.13313763  0.80751166  0.79595509    -0.83000
O643        O  0.15591313  0.85926640  0.98022410    -0.81400
O644        O  0.17662954  0.77634116  0.79553453    -0.85600
O645        O  0.14189360  0.71884761  0.86073249    -0.80400
O646        O  0.14022142  0.89864162  0.84372691    -0.82200
O647        O  0.20401798  0.80220967  0.96631283    -0.84900
C648        C  0.11651987  0.72556564  0.87331122     0.95800
C649        C  0.15491081  0.79195906  0.77366071     1.03300
O650        O  0.16352069  0.81657179  0.88757620    -1.13900
O651        O  0.21830843  0.86359143  0.87973004    -0.76300
O652        O  0.22035570  0.78334015  0.86880696    -0.79800
O653        O  0.10781579  0.76694377  0.88710186    -0.80500
C654        C  0.23209987  0.82498913  0.87064237     0.94700
O655        O  0.18295650  0.73503556  0.93855546    -0.78500
O656        O  0.16655363  0.92593834  0.90354882    -0.83700
C657        C  0.12993099  0.86591380  0.97546583     0.97400
C658        C  0.14695095  0.93217560  0.87272616     1.03300
O659        O  0.11660355  0.86062507  0.93547576    -0.79300
C660        C  0.19449920  0.75912361  0.97266224     1.01600
Fe661      Fe  0.31516151  0.74079316  0.12768179     1.65800
Fe662      Fe  0.30936796  0.63584677  0.06534737     1.73200
Fe663      Fe  0.36922171  0.66399203  0.12698272     1.54400
O664        O  0.38714492  0.72990092  0.10621623    -0.83000
O665        O  0.32847035  0.57073222  0.09094401    -0.81400
O666        O  0.35320177  0.77775765  0.13351258    -0.85600
O667        O  0.31882027  0.72001828  0.19888984    -0.80400
O668        O  0.37826049  0.63596116  0.05824272    -0.82200
O669        O  0.27671725  0.63309115  0.11469319    -0.84900
C670        C  0.34077413  0.70474229  0.22037183     0.95800
C671        C  0.37852444  0.77114490  0.12058674     1.03300
O672        O  0.33152188  0.68010880  0.10651187    -1.13900
O673        O  0.29092547  0.69442467  0.02793396    -0.76300
O674        O  0.31187515  0.76167789  0.05585852    -0.79800
O675        O  0.36244551  0.68947241  0.19766834    -0.80500
C676        C  0.30037186  0.73759151  0.02167531     0.94700
O677        O  0.27472613  0.71329585  0.12583486    -0.78500
O678        O  0.33887795  0.63711653  0.01374328    -0.83700
C679        C  0.34811998  0.56462590  0.12173851     0.97400
C680        C  0.36486711  0.63052492  0.01835642     1.03300
O681        O  0.35497892  0.59833945  0.15042158    -0.79300
C682        C  0.26294393  0.67169912  0.12379325     1.01600
Fe683      Fe  0.31513204  0.75581705  0.86655518     1.65800
Fe684      Fe  0.30938581  0.86071691  0.92897614     1.73200
Fe685      Fe  0.36923135  0.83251376  0.86736764     1.54400
O686        O  0.38709662  0.76658932  0.88816781    -0.83000
O687        O  0.32853131  0.92579975  0.90339983    -0.81400
O688        O  0.35316461  0.71880606  0.86071466    -0.85600
O689        O  0.31881414  0.77668150  0.79537245    -0.80400
O690        O  0.37826721  0.86050971  0.93611793    -0.82200
O691        O  0.27674833  0.86356853  0.87961417    -0.84900
C692        C  0.34078223  0.79194777  0.77392356     0.95800
C693        C  0.37847491  0.72537372  0.87373943     1.03300
O694        O  0.33151863  0.81645115  0.88779271    -1.13900
O695        O  0.29091208  0.80213481  0.96633347    -0.76300
O696        O  0.31183170  0.73487000  0.93835910    -0.79800
O697        O  0.36246956  0.80708453  0.79666319    -0.80500
C698        C  0.30035523  0.75896057  0.97256935     0.94700
O699        O  0.27470286  0.78337677  0.86842274    -0.78500
O700        O  0.33888205  0.85936205  0.98060639    -0.83700
C701        C  0.34817530  0.93189671  0.87258740     0.97400
C702        C  0.36487389  0.86592805  0.97600686     1.03300
O703        O  0.35503708  0.89817981  0.84391363    -0.79300
C704        C  0.26294696  0.82499842  0.87049769     1.01600
Fe705      Fe  0.93079144  0.49096393  0.36654626     1.65800
Fe706      Fe  0.93653152  0.38606598  0.42896565     1.73200
Fe707      Fe  0.87668773  0.41427623  0.36736615     1.54400
O708        O  0.85882746  0.48020060  0.38817351    -0.83000
O709        O  0.91738230  0.32098798  0.40339118    -0.81400
O710        O  0.89275955  0.02797804  0.36070522    -0.85600
O711        O  0.92711060  0.47009553  0.29536582    -0.80400
O712        O  0.86765109  0.38627726  0.43611694    -0.82200
O713        O  0.96916866  0.38320719  0.37960079    -0.84900
C714        C  0.90514136  0.45483489  0.27391959     0.95800
C715        C  0.86744981  0.02141367  0.37373918     1.03300
O716        O  0.91440127  0.43033322  0.38778520    -1.13900
O717        O  0.95500836  0.44464557  0.46631911    -0.76300
O718        O  0.93408962  0.51191214  0.43834977    -0.79800
O719        O  0.88345139  0.43970781  0.29666154    -0.80500
C720        C  0.94556616  0.48782016  0.47255769     0.94700
O721        O  0.97122112  0.46339889  0.36841636    -0.78500
O722        O  0.90703631  0.38742733  0.48059930    -0.83700
C723        C  0.89773864  0.31489245  0.37258053     0.97400
C724        C  0.88104495  0.38085831  0.47600360     1.03300
O725        O  0.89087725  0.34860937  0.34390743    -0.79300
C726        C  0.98297449  0.42177452  0.37049248     1.01600
Fe727      Fe  0.93076165  0.00597862  0.62767420     1.65800
Fe728      Fe  0.93656205  0.11093222  0.56534605     1.73200
Fe729      Fe  0.87670386  0.08278556  0.62698036     1.54400
O730        O  0.85877905  0.01687778  0.60621328    -0.83000
O731        O  0.91746554  0.17604865  0.59095376    -0.81400
O732        O  0.89272067  0.46901808  0.63350450    -0.85600
O733        O  0.92710061  0.02675063  0.69888416    -0.80400
O734        O  0.86766653  0.11081978  0.55824331    -0.82200
O735        O  0.96921444  0.11367011  0.61468852    -0.84900
C736        C  0.90514709  0.04203124  0.72036735     0.95800
C737        C  0.86739838  0.47563264  0.62058225     1.03300
O738        O  0.91440445  0.06666752  0.60650711    -1.13900
O739        O  0.95499802  0.05235445  0.52792114    -0.76300
O740        O  0.93404974  0.98509906  0.55584947    -0.79800
O741        O  0.88347699  0.05730327  0.69766483    -0.80500
C742        C  0.94555135  0.00918766  0.52166415     0.94700
O743        O  0.97119867  0.03346485  0.62582943    -0.78500
O744        O  0.90705111  0.10968401  0.51374336    -0.83700
C745        C  0.89781092  0.18215241  0.62174197     0.97400
C746        C  0.88106081  0.11626696  0.51835781     1.03300
O747        O  0.89094786  0.14843647  0.65042077    -0.79300
C748        C  0.98298389  0.07505845  0.62379147     1.01600
Fe749      Fe  0.56599938  0.49095797  0.36675465     1.65800
Fe750      Fe  0.56033859  0.38599376  0.42893722     1.73200
Fe751      Fe  0.62001111  0.41391202  0.36668563     1.54400
O752        O  0.61279068  0.43923271  0.29595822    -0.83000
O753        O  0.59000979  0.38746618  0.48022740    -0.81400
O754        O  0.56930036  0.47040912  0.29554101    -0.85600
O755        O  0.60403598  0.02789613  0.36074065    -0.80400
O756        O  0.60569951  0.34810364  0.34372930    -0.82200
O757        O  0.54190929  0.44454061  0.46632792    -0.84900
C758        C  0.62940901  0.02117667  0.37331825     0.95800
C759        C  0.59101892  0.45478858  0.27366521     1.03300
O760        O  0.58240378  0.43017447  0.38758260    -1.13900
O761        O  0.52760938  0.38316966  0.37974290    -0.76300
O762        O  0.52557022  0.46342083  0.36881421    -0.79800
O763        O  0.63811217  0.47979693  0.38710504    -0.80500
C764        C  0.51382219  0.42177553  0.37064950     0.94700
O765        O  0.56297075  0.01171390  0.43856367    -0.78500
O766        O  0.57936182  0.32080529  0.40354730    -0.83700
C767        C  0.61599281  0.38082445  0.47546674     0.97400
C768        C  0.59896658  0.31456786  0.37272558     1.03300
O769        O  0.62932015  0.38611562  0.43547564    -0.79300
C770        C  0.55142862  0.48762687  0.47267354     1.01600
Fe771      Fe  0.56595399  0.00565837  0.62767795     1.65800
Fe772      Fe  0.56036592  0.11055032  0.56537251     1.73200
Fe773      Fe  0.62000504  0.08259843  0.62764755     1.54400
O774        O  0.61278023  0.05733372  0.69839155    -0.83000
O775        O  0.59002874  0.10893006  0.51407115    -0.81400
O776        O  0.56925779  0.02630483  0.69886670    -0.85600
O777        O  0.60397932  0.46867054  0.63373216    -0.80400
O778        O  0.60573281  0.14842334  0.65059588    -0.82200
O779        O  0.54189147  0.05199462  0.52807257    -0.84900
C780        C  0.62934426  0.47534475  0.62106935     0.95800
C781        C  0.59098919  0.04190475  0.72071509     1.03300
O782        O  0.58239392  0.06638026  0.60677637    -1.13900
O783        O  0.52765259  0.11352359  0.61457862    -0.76300
O784        O  0.52554105  0.03328663  0.62556796    -0.79800
O785        O  0.63805338  0.01669390  0.60721926    -0.80500
C786        C  0.51382932  0.07496531  0.62368723     0.94700
O787        O  0.56292777  0.48482104  0.55588925    -0.78500
O788        O  0.57944269  0.17570784  0.59070739    -0.83700
C789        C  0.61600663  0.11560756  0.51884100     0.97400
C790        C  0.59901965  0.18194928  0.62158012     1.03300
O791        O  0.62932395  0.11036101  0.55884593    -0.79300
C792        C  0.55141024  0.00890305  0.52175113     1.01600
Fe793      Fe  0.68077155  0.24080554  0.36665554     1.65800
Fe794      Fe  0.68656851  0.13585190  0.42898731     1.73200
Fe795      Fe  0.62671262  0.16400970  0.36736083     1.54400
O796        O  0.60879158  0.22992121  0.38812915    -0.83000
O797        O  0.66746759  0.07073936  0.40338423    -0.81400
O798        O  0.64273216  0.27777221  0.36082280    -0.85600
O799        O  0.67711300  0.22003076  0.29544512    -0.80400
O800        O  0.61767468  0.13597968  0.43610387    -0.82200
O801        O  0.71922018  0.13310715  0.37963863    -0.84900
C802        C  0.65515985  0.20475059  0.27396473     0.95800
C803        C  0.61741052  0.27116248  0.37375176     1.03300
O804        O  0.66441307  0.18012007  0.38782717    -1.13900
O805        O  0.70500819  0.19442692  0.46640323    -0.76300
O806        O  0.68405786  0.26168482  0.43848147    -0.79800
O807        O  0.63348850  0.18948716  0.29667179    -0.80500
C808        C  0.69556047  0.23759362  0.47266402     0.94700
O809        O  0.72120634  0.21331266  0.36850080    -0.78500
O810        O  0.65705879  0.13710826  0.48059925    -0.83700
C811        C  0.64781384  0.06463789  0.37259645     0.97400
C812        C  0.63106831  0.13052914  0.47598888     1.03300
O813        O  0.64095163  0.09835471  0.34391858    -0.79300
C814        C  0.73299060  0.17171726  0.37053780     1.01600
Fe815      Fe  0.68079444  0.25580516  0.62778224     1.65800
Fe816      Fe  0.68653327  0.36070497  0.56536564     1.73200
Fe817      Fe  0.62668850  0.33249281  0.62696295     1.54400
O818        O  0.60883177  0.26656862  0.60615633    -0.83000
O819        O  0.66737915  0.42578050  0.59093720    -0.81400
O820        O  0.64276364  0.21878949  0.63362577    -0.85600
O821        O  0.67710873  0.27666931  0.69896127    -0.80400
O822        O  0.61765594  0.36049774  0.55821256    -0.82200
O823        O  0.71916233  0.36356905  0.61473742    -0.84900
C824        C  0.65513644  0.29192294  0.72040732     0.95800
C825        C  0.61745321  0.22535661  0.62059817     1.03300
O826        O  0.66440285  0.31643582  0.60654415    -1.13900
O827        O  0.70501791  0.30212690  0.52801648    -0.76300
O828        O  0.68409711  0.23486093  0.55597821    -0.79800
O829        O  0.63344785  0.30705490  0.69766602    -0.80500
C830        C  0.69557467  0.25895537  0.52177249     0.94700
O831        O  0.72122124  0.28337647  0.62591492    -0.78500
O832        O  0.65704255  0.35934049  0.51372831    -0.83700
C833        C  0.64773594  0.43187595  0.62175100     0.97400
C834        C  0.63105136  0.36591793  0.51832584     1.03300
O835        O  0.64087517  0.39815844  0.65042407    -0.79300
C836        C  0.73297035  0.32500361  0.62384482     1.01600
Fe837      Fe  0.81595722  0.24111586  0.36665171     1.65800
Fe838      Fe  0.81036534  0.13623886  0.42897611     1.73200
Fe839      Fe  0.87000694  0.16417162  0.36669849     1.54400
O840        O  0.86279005  0.18942502  0.29595218    -0.83000
O841        O  0.84002321  0.13787535  0.48027969    -0.81400
O842        O  0.81926578  0.22044942  0.29546959    -0.85600
O843        O  0.85398361  0.27809850  0.36059417    -0.80400
O844        O  0.85573170  0.09835043  0.34375402    -0.82200
O845        O  0.79188422  0.19480482  0.46625777    -0.84900
C846        C  0.87934743  0.27142412  0.37326364     0.95800
C847        C  0.84099857  0.20484319  0.27362537     1.03300
O848        O  0.83239570  0.18039876  0.38756662    -1.13900
O849        O  0.77765874  0.13325246  0.37976388    -0.76300
O850        O  0.77554555  0.21348794  0.36876261    -0.79800
O851        O  0.88805533  0.23007567  0.38712097    -0.80500
C852        C  0.76383536  0.17180930  0.37064617     0.94700
O853        O  0.81292565  0.26196939  0.43843652    -0.78500
O854        O  0.82944726  0.07107514  0.40365586    -0.83700
C855        C  0.86600043  0.13118633  0.47550809     0.97400
C856        C  0.84901877  0.06482606  0.37277092     1.03300
O857        O  0.87931886  0.13641688  0.43550137    -0.79300
C858        C  0.80140559  0.23789373  0.47257711     1.01600
Fe859      Fe  0.81599492  0.25582992  0.62757316     1.65800
Fe860      Fe  0.81032931  0.36080177  0.56540122     1.73200
Fe861      Fe  0.87000107  0.33288044  0.62764884     1.54400
O862        O  0.86277578  0.30756168  0.69837633    -0.83000
O863        O  0.84000059  0.35933496  0.51410820    -0.81400
O864        O  0.81929063  0.27636795  0.69879149    -0.85600
O865        O  0.85403092  0.21889217  0.63358587    -0.80400
O866        O  0.85568711  0.39869095  0.65060354    -0.82200
O867        O  0.79190402  0.30225641  0.52800537    -0.84900
C868        C  0.87940494  0.22561366  0.62101662     0.95800
C869        C  0.84100605  0.29199336  0.72066854     1.03300
O870        O  0.83239613  0.31661756  0.60675103    -1.13900
O871        O  0.77760107  0.36361740  0.61460171    -0.76300
O872        O  0.77556680  0.28336401  0.62551608    -0.79800
O873        O  0.88810777  0.26699472  0.60723449    -0.80500
C874        C  0.76381670  0.32500833  0.62368911     0.94700
O875        O  0.81297053  0.23508288  0.55576118    -0.78500
O876        O  0.82934897  0.42599209  0.59079076    -0.83700
C877        C  0.86598433  0.36596390  0.51886561     0.97400
C878        C  0.84895429  0.43222791  0.62160872     1.03300
O879        O  0.87931115  0.36067028  0.55885573    -0.79300
C880        C  0.80142563  0.25917059  0.52165514     1.01600
Fe881      Fe  0.92993442  0.49094271  0.12756877     1.65800
Fe882      Fe  0.93559409  0.38597289  0.06539103     1.73200
Fe883      Fe  0.87592454  0.41389940  0.12764941     1.54400
O884        O  0.88314944  0.43922022  0.19837476    -0.83000
O885        O  0.90592050  0.38744437  0.01410445    -0.81400
O886        O  0.92663698  0.47040306  0.19878633    -0.85600
O887        O  0.89189916  0.02788455  0.13358538    -0.80400
O888        O  0.89023513  0.34808752  0.15060421    -0.82200
O889        O  0.95401967  0.44451776  0.02799123    -0.84900
C890        C  0.86652570  0.02116505  0.12101446     0.95800
C891        C  0.90491946  0.45478486  0.22066506     1.03300
O892        O  0.91353050  0.43015770  0.10674700    -1.13900
O893        O  0.96832510  0.38315088  0.11458364    -0.76300
O894        O  0.97036193  0.46340277  0.12550898    -0.79800
O895        O  0.85782240  0.47978533  0.10723224    -0.80500
C896        C  0.98211021  0.42175671  0.12368038     0.94700
O897        O  0.93295947  0.01169358  0.05575801    -0.78500
O898        O  0.91657269  0.32078530  0.09078668    -0.83700
C899        C  0.87993655  0.38081739  0.01886679     0.97400
C900        C  0.89696793  0.31455021  0.12160901     1.03300
O901        O  0.86661141  0.38610881  0.05886009    -0.79300
C902        C  0.94449976  0.48760555  0.02164644     1.01600
Fe903      Fe  0.92995938  0.00566234  0.86664809     1.65800
Fe904      Fe  0.93555874  0.11054196  0.92896365     1.73200
Fe905      Fe  0.87591463  0.08261819  0.86669578     1.54400
O906        O  0.88313105  0.05736144  0.79594878    -0.83000
O907        O  0.90590257  0.10891296  0.98027175    -0.81400
O908        O  0.92665251  0.02632431  0.79546481    -0.85600
O909        O  0.89193106  0.46868691  0.86059837    -0.80400
O910        O  0.89019418  0.14843767  0.84374895    -0.82200
O911        O  0.95403668  0.05197357  0.96624657    -0.84900
C912        C  0.86656719  0.47536515  0.87326797     0.95800
C913        C  0.90492140  0.04193462  0.77362123     1.03300
O914        O  0.91352478  0.06638419  0.88756033    -1.13900
O915        O  0.96826483  0.11351822  0.87974633    -0.76300
O916        O  0.97037317  0.03328131  0.86875463    -0.79800
O917        O  0.85786047  0.01671647  0.88712105    -0.80500
C918        C  0.98208663  0.07495712  0.87063752     0.94700
O919        O  0.93299025  0.48481166  0.93843325    -0.78500
O920        O  0.91647977  0.17571053  0.90364585    -0.83700
C921        C  0.87992579  0.11560510  0.97550430     0.97400
C922        C  0.89690728  0.18196149  0.87276558     1.03300
O923        O  0.86660611  0.11037537  0.93550029    -0.79300
C924        C  0.94451492  0.00888491  0.97256899     1.01600
Fe925      Fe  0.56513692  0.49094670  0.12778905     1.65800
Fe926      Fe  0.55939464  0.38604894  0.06537363     1.73200
Fe927      Fe  0.61924113  0.41425411  0.12696192     1.54400
O928        O  0.63709973  0.48017666  0.10614945    -0.83000
O929        O  0.57854828  0.32097100  0.09094211    -0.81400
O930        O  0.60316930  0.02795765  0.13362569    -0.85600
O931        O  0.56882248  0.47008001  0.19896750    -0.80400
O932        O  0.62827096  0.38624556  0.05821047    -0.82200
O933        O  0.52676472  0.38318767  0.11474788    -0.84900
C934        C  0.59079445  0.45482556  0.22041114     0.95800
C935        C  0.62847903  0.02138970  0.12059117     1.03300
O936        O  0.58152688  0.43031516  0.10654856    -1.13900
O937        O  0.54091058  0.44462902  0.02802854    -0.76300
O938        O  0.56183327  0.51189394  0.05598578    -0.79800
O939        O  0.61248330  0.43969397  0.19766683    -0.80500
C940        C  0.55035235  0.48780155  0.02178353     0.94700
O941        O  0.52470854  0.46338022  0.12592470    -0.78500
O942        O  0.58888430  0.38741219  0.01373198    -0.83700
C943        C  0.59819143  0.31487305  0.12175330     0.97400
C944        C  0.61487456  0.38082668  0.01832613     1.03300
O945        O  0.60505277  0.34858958  0.15042624    -0.79300
C946        C  0.51295704  0.42175537  0.12384982     1.01600
Fe947      Fe  0.56514713  0.00594436  0.86666271     1.65800
Fe948      Fe  0.55935572  0.11090281  0.92899039     1.73200
Fe949      Fe  0.61921069  0.08273051  0.86736055     1.54400
O950        O  0.63712554  0.01681856  0.88813450    -0.83000
O951        O  0.57845817  0.17600917  0.90337610    -0.81400
O952        O  0.60318492  0.46897109  0.86082751    -0.85600
O953        O  0.56880817  0.02671537  0.79545156    -0.80400
O954        O  0.62825117  0.11076539  0.93609767    -0.82200
O955        O  0.52670322  0.11364849  0.87964635    -0.84900
C956        C  0.59076327  0.04198991  0.77397016     0.95800
C957        C  0.62850636  0.47557905  0.87375551     1.03300
O958        O  0.58150864  0.06662867  0.88783039    -1.13900
O959        O  0.54091598  0.05233201  0.96641636    -0.76300
O960        O  0.56185979  0.98506904  0.93848899    -0.79800
O961        O  0.61243502  0.05724837  0.79667559    -0.80500
C962        C  0.55036230  0.00916396  0.97267516     0.94700
O963        O  0.52471331  0.03344338  0.86850834    -0.78500
O964        O  0.58886701  0.10965051  0.98059789    -0.83700
C965        C  0.59811465  0.18210571  0.87258977     0.97400
C966        C  0.61485819  0.11622338  0.97598352     1.03300
O967        O  0.60497785  0.14838684  0.84391421    -0.79300
C968        C  0.51293158  0.07504121  0.87054151     1.01600
Fe969      Fe  0.67997343  0.24108961  0.12766968     1.65800
Fe970      Fe  0.68556407  0.13620079  0.06535574     1.73200
Fe971      Fe  0.62592403  0.16414788  0.12764052     1.54400
O972        O  0.63314629  0.18940652  0.19838575    -0.83000
O973        O  0.65589993  0.13782311  0.01405747    -0.81400
O974        O  0.67666717  0.22044051  0.19885934    -0.85600
O975        O  0.64194819  0.27807740  0.13372551    -0.80400
O976        O  0.64019900  0.09832334  0.15058358    -0.82200
O977        O  0.70403925  0.19475787  0.02805899    -0.84900
C978        C  0.61658306  0.27140331  0.12106754     0.95800
C979        C  0.65493590  0.20483688  0.22070888     1.03300
O980        O  0.66353517  0.18036834  0.10676547    -1.13900
O981        O  0.71827854  0.13322655  0.11455772    -0.76300
O982        O  0.72038543  0.21346254  0.12556046    -0.79800
O983        O  0.60787388  0.23005379  0.10721912    -0.80500
C984        C  0.73209873  0.17178583  0.12367713     0.94700
O985        O  0.68300237  0.26192956  0.05588070    -0.78500
O986        O  0.66648772  0.07104082  0.09068911    -0.83700
C987        C  0.62992187  0.13114483  0.01883201     0.97400
C988        C  0.64691206  0.06479778  0.12156668     1.03300
O989        O  0.61660547  0.13638956  0.05883952    -0.79300
C990        C  0.69451953  0.23784860  0.02174000     1.01600
Fe991      Fe  0.67992893  0.25579179  0.86674680     1.65800
Fe992      Fe  0.68558254  0.36075371  0.92893032     1.73200
Fe993      Fe  0.62591375  0.33283055  0.86668297     1.54400
O994        O  0.63313768  0.30751164  0.79595512    -0.83000
O995        O  0.65591323  0.35926663  0.98022408    -0.81400
O996        O  0.67662963  0.27634129  0.79553451    -0.85600
O997        O  0.64189366  0.21884775  0.86073250    -0.80400
O998        O  0.64022143  0.39864163  0.84372692    -0.82200
O999        O  0.70401802  0.30220964  0.96631289    -0.84900
C1000       C  0.61651990  0.22556575  0.87331120     0.95800
C1001       C  0.65491084  0.29195905  0.77366071     1.03300
O1002       O  0.66352078  0.31657173  0.88757626    -1.13900
O1003       O  0.71830844  0.36359153  0.87973002    -0.76300
O1004       O  0.72035574  0.28334029  0.86880696    -0.79800
O1005       O  0.60781582  0.26694382  0.88710183    -0.80500
C1006       C  0.73209988  0.32498927  0.87064235     0.94700
O1007       O  0.68295648  0.23503563  0.93855544    -0.78500
O1008       O  0.66655373  0.42593830  0.90354874    -0.83700
C1009       C  0.62993103  0.36591379  0.97546579     0.97400
C1010       C  0.64695096  0.43217555  0.87272618     1.03300
O1011       O  0.61660361  0.36062495  0.93547578    -0.79300
C1012       C  0.69449918  0.25912360  0.97266226     1.01600
Fe1013     Fe  0.81516149  0.24079310  0.12768180     1.65800
Fe1014     Fe  0.80936794  0.13584670  0.06534737     1.73200
Fe1015     Fe  0.86922179  0.16399198  0.12698270     1.54400
O1016       O  0.88714491  0.22990099  0.10621627    -0.83000
O1017       O  0.82847032  0.07073210  0.09094397    -0.81400
O1018       O  0.85320173  0.27775774  0.13351257    -0.85600
O1019       O  0.81882028  0.22001820  0.19888983    -0.80400
O1020       O  0.87826050  0.13596111  0.05824270    -0.82200
O1021       O  0.77671723  0.13309106  0.11469318    -0.84900
C1022       C  0.84077417  0.20474221  0.22037183     0.95800
C1023       C  0.87852441  0.27114498  0.12058677     1.03300
O1024       O  0.83152191  0.18010872  0.10651189    -1.13900
O1025       O  0.79092545  0.19442471  0.02793391    -0.76300
O1026       O  0.81187512  0.26167790  0.05585858    -0.79800
O1027       O  0.86244553  0.18947234  0.19766835    -0.80500
C1028       C  0.80037185  0.23759158  0.02167533     0.94700
O1029       O  0.77472612  0.21329576  0.12583486    -0.78500
O1030       O  0.83887795  0.13711644  0.01374326    -0.83700
C1031       C  0.84812003  0.06462587  0.12173843     0.97400
C1032       C  0.86486710  0.13052485  0.01835639     1.03300
O1033       O  0.85497896  0.09833943  0.15042143    -0.79300
C1034       C  0.76294392  0.17169902  0.12379326     1.01600
Fe1035     Fe  0.81513202  0.25581700  0.86655519     1.65800
Fe1036     Fe  0.80938588  0.36071689  0.92897612     1.73200
Fe1037     Fe  0.86923133  0.33251369  0.86736763     1.54400
O1038       O  0.88709659  0.26658932  0.88816784    -0.83000
O1039       O  0.82853132  0.42579969  0.90339984    -0.81400
O1040       O  0.85316461  0.21880599  0.86071468    -0.85600
O1041       O  0.81881411  0.27668142  0.79537243    -0.80400
O1042       O  0.87826722  0.36050964  0.93611793    -0.82200
O1043       O  0.77674836  0.36356866  0.87961421    -0.84900
C1044       C  0.84078222  0.29194770  0.77392357     0.95800
C1045       C  0.87847491  0.22537370  0.87373946     1.03300
O1046       O  0.83151864  0.31645107  0.88779267    -1.13900
O1047       O  0.79091213  0.30213490  0.96633343    -0.76300
O1048       O  0.81183180  0.23487010  0.93835916    -0.79800
O1049       O  0.86246952  0.30708446  0.79666321    -0.80500
C1050       C  0.80035531  0.25896068  0.97256937     0.94700
O1051       O  0.77470283  0.28337688  0.86842277    -0.78500
O1052       O  0.83888208  0.35936195  0.98060640    -0.83700
C1053       C  0.84817526  0.43189670  0.87258743     0.97400
C1054       C  0.86487394  0.36592796  0.97600685     1.03300
O1055       O  0.85503707  0.39817978  0.84391363    -0.79300
C1056       C  0.76294696  0.32499857  0.87049770     1.01600
Fe1057     Fe  0.93079155  0.99096401  0.36654627     1.65800
Fe1058     Fe  0.93653150  0.88606592  0.42896568     1.73200
Fe1059     Fe  0.87668782  0.91427630  0.36736615     1.54400
O1060       O  0.85882749  0.98020059  0.38817350    -0.83000
O1061       O  0.91738229  0.82098797  0.40339121    -0.81400
O1062       O  0.89275950  0.52797808  0.36070520    -0.85600
O1063       O  0.92711063  0.97009559  0.29536583    -0.80400
O1064       O  0.86765110  0.88627730  0.43611691    -0.82200
O1065       O  0.96916867  0.88320722  0.37960077    -0.84900
C1066       C  0.90514137  0.95483496  0.27391958     0.95800
C1067       C  0.86744977  0.52141370  0.37373918     1.03300
O1068       O  0.91440136  0.93033327  0.38778524    -1.13900
O1069       O  0.95500834  0.94464559  0.46631910    -0.76300
O1070       O  0.93408973  0.01191230  0.43834974    -0.79800
O1071       O  0.88345141  0.93970790  0.29666152    -0.80500
C1072       C  0.94556622  0.98782023  0.47255767     0.94700
O1073       O  0.97122122  0.96339898  0.36841637    -0.78500
O1074       O  0.90703627  0.88742760  0.48059931    -0.83700
C1075       C  0.89773870  0.81489240  0.37258053     0.97400
C1076       C  0.88104493  0.88085845  0.47600360     1.03300
O1077       O  0.89087728  0.84860939  0.34390743    -0.79300
C1078       C  0.98297453  0.92177457  0.37049249     1.01600
Fe1079     Fe  0.93076162  0.50597860  0.62767421     1.65800
Fe1080     Fe  0.93656201  0.61093222  0.56534605     1.73200
Fe1081     Fe  0.87670382  0.58278557  0.62698035     1.54400
O1082       O  0.85877901  0.51687772  0.60621326    -0.83000
O1083       O  0.91746549  0.67604857  0.59095375    -0.81400
O1084       O  0.89272072  0.96901815  0.63350449    -0.85600
O1085       O  0.92710055  0.52675047  0.69888418    -0.80400
O1086       O  0.86766650  0.61081983  0.55824331    -0.82200
O1087       O  0.96921443  0.61367017  0.61468852    -0.84900
C1088       C  0.90514704  0.54203118  0.72036735     0.95800
C1089       C  0.86739843  0.97563273  0.62058223     1.03300
O1090       O  0.91440440  0.56666749  0.60650706    -1.13900
O1091       O  0.95499797  0.55235442  0.52792110    -0.76300
O1092       O  0.93404976  0.48509900  0.55584951    -0.79800
O1093       O  0.88347699  0.55730334  0.69766484    -0.80500
C1094       C  0.94555132  0.50918759  0.52166416     0.94700
O1095       O  0.97119866  0.53346493  0.62582944    -0.78500
O1096       O  0.90705108  0.60968408  0.51374336    -0.83700
C1097       C  0.89781088  0.68215238  0.62174200     0.97400
C1098       C  0.88106078  0.61626703  0.51835781     1.03300
O1099       O  0.89094781  0.64843648  0.65042080    -0.79300
C1100       C  0.98298390  0.57505853  0.62379145     1.01600
Fe1101     Fe  0.56599940  0.99095804  0.36675465     1.65800
Fe1102     Fe  0.56033857  0.88599383  0.42893721     1.73200
Fe1103     Fe  0.62001118  0.91391186  0.36668565     1.54400
O1104       O  0.61279071  0.93923249  0.29595824    -0.83000
O1105       O  0.59000978  0.88746624  0.48022741    -0.81400
O1106       O  0.56930042  0.97040918  0.29554100    -0.85600
O1107       O  0.60403593  0.52789623  0.36074066    -0.80400
O1108       O  0.60569948  0.84810363  0.34372928    -0.82200
O1109       O  0.54190930  0.94454073  0.46632785    -0.84900
C1110       C  0.62940898  0.52117680  0.37331819     0.95800
C1111       C  0.59101899  0.95478859  0.27366522     1.03300
O1112       O  0.58240382  0.93017447  0.38758258    -1.13900
O1113       O  0.52760936  0.88316972  0.37974291    -0.76300
O1114       O  0.52557025  0.96342088  0.36881421    -0.79800
O1115       O  0.63811216  0.97979680  0.38710525    -0.80500
C1116       C  0.51382219  0.92177560  0.37064950     0.94700
O1117       O  0.56297073  0.51171375  0.43856364    -0.78500
O1118       O  0.57936179  0.82080535  0.40354730    -0.83700
C1119       C  0.61599278  0.88082451  0.47546680     0.97400
C1120       C  0.59896655  0.81456790  0.37272558     1.03300
O1121       O  0.62932016  0.88611560  0.43547567    -0.79300
C1122       C  0.55142864  0.98762697  0.47267354     1.01600
Fe1123     Fe  0.56595396  0.50565840  0.62767796     1.65800
Fe1124     Fe  0.56036593  0.61055017  0.56537252     1.73200
Fe1125     Fe  0.62000501  0.58259848  0.62764755     1.54400
O1126       O  0.61278019  0.55733379  0.69839155    -0.83000
O1127       O  0.59002876  0.60893008  0.51407112    -0.81400
O1128       O  0.56925775  0.52630492  0.69886670    -0.85600
O1129       O  0.60397931  0.96867043  0.63373212    -0.80400
O1130       O  0.60573278  0.64842336  0.65059592    -0.82200
O1131       O  0.54189157  0.55199458  0.52807251    -0.84900
C1132       C  0.62934425  0.97534470  0.62106934     0.95800
C1133       C  0.59098915  0.54190482  0.72071509     1.03300
O1134       O  0.58239392  0.56638018  0.60677634    -1.13900
O1135       O  0.52765257  0.61352359  0.61457859    -0.76300
O1136       O  0.52554101  0.53328668  0.62556795    -0.79800
O1137       O  0.63805340  0.51669395  0.60721925    -0.80500
C1138       C  0.51382928  0.57496536  0.62368723     0.94700
O1139       O  0.56292774  0.98482110  0.55588925    -0.78500
O1140       O  0.57944266  0.67570768  0.59070739    -0.83700
C1141       C  0.61600670  0.61560763  0.51884100     0.97400
C1142       C  0.59901961  0.68194924  0.62158010     1.03300
O1143       O  0.62932396  0.61036109  0.55884589    -0.79300
C1144       C  0.55141031  0.50890301  0.52175110     1.01600
Fe1145     Fe  0.68077152  0.74080561  0.36665555     1.65800
Fe1146     Fe  0.68656850  0.63585195  0.42898721     1.73200
Fe1147     Fe  0.62671259  0.66400978  0.36736081     1.54400
O1148       O  0.60879154  0.72992128  0.38812915    -0.83000
O1149       O  0.66746755  0.57073944  0.40338421    -0.81400
O1150       O  0.64273213  0.77777228  0.36082280    -0.85600
O1151       O  0.67711300  0.72003083  0.29544512    -0.80400
O1152       O  0.61767467  0.63597976  0.43610382    -0.82200
O1153       O  0.71922012  0.63310722  0.37963839    -0.84900
C1154       C  0.65515988  0.70475066  0.27396473     0.95800
C1155       C  0.61741048  0.77116255  0.37375177     1.03300
O1156       O  0.66441304  0.68012015  0.38782717    -1.13900
O1157       O  0.70500818  0.69442690  0.46640319    -0.76300
O1158       O  0.68405783  0.76168483  0.43848150    -0.79800
O1159       O  0.63348850  0.68948723  0.29667179    -0.80500
C1160       C  0.69556042  0.73759358  0.47266402     0.94700
O1161       O  0.72120631  0.71331275  0.36850082    -0.78500
O1162       O  0.65705882  0.63710831  0.48059909    -0.83700
C1163       C  0.64781380  0.56463800  0.37259642     0.97400
C1164       C  0.63106829  0.63052919  0.47598873     1.03300
O1165       O  0.64095160  0.59835481  0.34391857    -0.79300
C1166       C  0.73299056  0.67171734  0.37053772     1.01600
Fe1167     Fe  0.68079449  0.75580520  0.62778226     1.65800
Fe1168     Fe  0.68653324  0.86070486  0.56536565     1.73200
Fe1169     Fe  0.62668847  0.83249282  0.62696295     1.54400
O1170       O  0.60883173  0.76656862  0.60615635    -0.83000
O1171       O  0.66737913  0.92578045  0.59093718    -0.81400
O1172       O  0.64276364  0.71878951  0.63362576    -0.85600
O1173       O  0.67710873  0.77666939  0.69896128    -0.80400
O1174       O  0.61765593  0.86049757  0.55821252    -0.82200
O1175       O  0.71916229  0.86356908  0.61473740    -0.84900
C1176       C  0.65513643  0.79192300  0.72040732     0.95800
C1177       C  0.61745321  0.72535658  0.62059815     1.03300
O1178       O  0.66440283  0.81643579  0.60654419    -1.13900
O1179       O  0.70501789  0.80212682  0.52801645    -0.76300
O1180       O  0.68409710  0.73486091  0.55597824    -0.79800
O1181       O  0.63344783  0.80705498  0.69766603    -0.80500
C1182       C  0.69557465  0.75895530  0.52177248     0.94700
O1183       O  0.72122126  0.78337655  0.62591491    -0.78500
O1184       O  0.65704254  0.85934051  0.51372831    -0.83700
C1185       C  0.64773593  0.93187595  0.62175100     0.97400
C1186       C  0.63105138  0.86591794  0.51832581     1.03300
O1187       O  0.64087514  0.89815848  0.65042406    -0.79300
C1188       C  0.73297035  0.82500368  0.62384483     1.01600
Fe1189     Fe  0.81595722  0.74111595  0.36665171     1.65800
Fe1190     Fe  0.81036532  0.63623889  0.42897609     1.73200
Fe1191     Fe  0.87000690  0.66417165  0.36669849     1.54400
O1192       O  0.86279009  0.68942505  0.29595216    -0.83000
O1193       O  0.84002316  0.63787515  0.48027967    -0.81400
O1194       O  0.81926585  0.72044954  0.29546961    -0.85600
O1195       O  0.85398366  0.77809854  0.36059419    -0.80400
O1196       O  0.85573166  0.59835049  0.34375402    -0.82200
O1197       O  0.79188430  0.69480480  0.46625783    -0.84900
C1198       C  0.87934745  0.77142413  0.37326360     0.95800
C1199       C  0.84099864  0.70484327  0.27362537     1.03300
O1200       O  0.83239568  0.68039883  0.38756663    -1.13900
O1201       O  0.77765871  0.63325255  0.37976388    -0.76300
O1202       O  0.77554553  0.71348802  0.36876259    -0.79800
O1203       O  0.88805533  0.73007562  0.38712098    -0.80500
C1204       C  0.76383533  0.67180939  0.37064617     0.94700
O1205       O  0.81292561  0.76196946  0.43843650    -0.78500
O1206       O  0.82944721  0.57107519  0.40365584    -0.83700
C1207       C  0.86600039  0.63118633  0.47550809     0.97400
C1208       C  0.84901873  0.56482611  0.37277093     1.03300
O1209       O  0.87931882  0.63641697  0.43550138    -0.79300
C1210       C  0.80140560  0.73789374  0.47257712     1.01600
Fe1211     Fe  0.81599489  0.75582982  0.62757316     1.65800
Fe1212     Fe  0.81032938  0.86080182  0.56540123     1.73200
Fe1213     Fe  0.87000106  0.83288047  0.62764884     1.54400
O1214       O  0.86277585  0.80756170  0.69837635    -0.83000
O1215       O  0.84000059  0.85933501  0.51410817    -0.81400
O1216       O  0.81929068  0.77636799  0.69879146    -0.85600
O1217       O  0.85403090  0.71889213  0.63358587    -0.80400
O1218       O  0.85568711  0.89869103  0.65060354    -0.82200
O1219       O  0.79190403  0.80225648  0.52800537    -0.84900
C1220       C  0.87940492  0.72561364  0.62101661     0.95800
C1221       C  0.84100612  0.79199341  0.72066854     1.03300
O1222       O  0.83239612  0.81661751  0.60675108    -1.13900
O1223       O  0.77760108  0.86361747  0.61460167    -0.76300
O1224       O  0.77556678  0.78336404  0.62551609    -0.79800
O1225       O  0.88810774  0.76699469  0.60723445    -0.80500
C1226       C  0.76381670  0.82500840  0.62368910     0.94700
O1227       O  0.81297049  0.73508287  0.55576118    -0.78500
O1228       O  0.82934901  0.92599220  0.59079076    -0.83700
C1229       C  0.86598433  0.86596398  0.51886559     0.97400
C1230       C  0.84895435  0.93222797  0.62160872     1.03300
O1231       O  0.87931112  0.86067034  0.55885573    -0.79300
C1232       C  0.80142560  0.75917064  0.52165514     1.01600
Fe1233     Fe  0.92993440  0.99094273  0.12756871     1.65800
Fe1234     Fe  0.93559416  0.88597294  0.06539100     1.73200
Fe1235     Fe  0.87592453  0.91389926  0.12764941     1.54400
O1236       O  0.88314950  0.93922024  0.19837473    -0.83000
O1237       O  0.90592050  0.88744442  0.01410445    -0.81400
O1238       O  0.92663705  0.97040306  0.19878632    -0.85600
O1239       O  0.89189916  0.52788460  0.13358540    -0.80400
O1240       O  0.89023513  0.84808734  0.15060426    -0.82200
O1241       O  0.95401972  0.94451786  0.02799120    -0.84900
C1242       C  0.86652569  0.52116513  0.12101461     0.95800
C1243       C  0.90491954  0.95478491  0.22066504     1.03300
O1244       O  0.91353047  0.93015773  0.10674684    -1.13900
O1245       O  0.96832510  0.88315092  0.11458370    -0.76300
O1246       O  0.97036193  0.96340284  0.12550870    -0.79800
O1247       O  0.85782240  0.97978524  0.10723222    -0.80500
C1248       C  0.98211021  0.92175673  0.12368030     0.94700
O1249       O  0.93295959  0.51169360  0.05575806    -0.78500
O1250       O  0.91657271  0.82078531  0.09078665    -0.83700
C1251       C  0.87993654  0.88081737  0.01886679     0.97400
C1252       C  0.89696798  0.81455008  0.12160900     1.03300
O1253       O  0.86661137  0.88610878  0.05886008    -0.79300
C1254       C  0.94449975  0.98760560  0.02164641     1.01600
Fe1255     Fe  0.92995936  0.50566220  0.86664814     1.65800
Fe1256     Fe  0.93555872  0.61054199  0.92896365     1.73200
Fe1257     Fe  0.87591460  0.58261820  0.86669582     1.54400
O1258       O  0.88313103  0.55736144  0.79594879    -0.83000
O1259       O  0.90590256  0.60891303  0.98027172    -0.81400
O1260       O  0.92665243  0.52632399  0.79546480    -0.85600
O1261       O  0.89193109  0.96868686  0.86059813    -0.80400
O1262       O  0.89019416  0.64843760  0.84374898    -0.82200
O1263       O  0.95403668  0.55197363  0.96624669    -0.84900
C1264       C  0.86656721  0.97536512  0.87326780     0.95800
C1265       C  0.90492137  0.54193447  0.77362124     1.03300
O1266       O  0.91352477  0.56638417  0.88756031    -1.13900
O1267       O  0.96826480  0.61351809  0.87974631    -0.76300
O1268       O  0.97037315  0.53328114  0.86875462    -0.79800
O1269       O  0.85786044  0.51671649  0.88712127    -0.80500
C1270       C  0.98208659  0.57495700  0.87063753     0.94700
O1271       O  0.93299023  0.98481162  0.93843321    -0.78500
O1272       O  0.91647975  0.67571052  0.90364583    -0.83700
C1273       C  0.87992580  0.61560517  0.97550431     0.97400
C1274       C  0.89690724  0.68196142  0.87276554     1.03300
O1275       O  0.86660608  0.61037545  0.93550030    -0.79300
C1276       C  0.94451497  0.50888489  0.97256903     1.01600
Fe1277     Fe  0.56513703  0.99094677  0.12778905     1.65800
Fe1278     Fe  0.55939472  0.88604904  0.06537364     1.73200
Fe1279     Fe  0.61924115  0.91425417  0.12696193     1.54400
O1280       O  0.63709980  0.98017669  0.10614950    -0.83000
O1281       O  0.57854829  0.82097106  0.09094210    -0.81400
O1282       O  0.60316923  0.52795754  0.13362574    -0.85600
O1283       O  0.56882261  0.97008014  0.19896750    -0.80400
O1284       O  0.62827095  0.88624562  0.05821046    -0.82200
O1285       O  0.52676474  0.88318777  0.11474785    -0.84900
C1286       C  0.59079454  0.95482566  0.22041116     0.95800
C1287       C  0.62847896  0.52138966  0.12059118     1.03300
O1288       O  0.58152696  0.93031527  0.10654854    -1.13900
O1289       O  0.54091060  0.94462909  0.02802852    -0.76300
O1290       O  0.56183333  0.01189396  0.05598578    -0.79800
O1291       O  0.61248337  0.93969400  0.19766684    -0.80500
C1292       C  0.55035233  0.98780166  0.02178355     0.94700
O1293       O  0.52470859  0.96338031  0.12592472    -0.78500
O1294       O  0.58888431  0.88741227  0.01373195    -0.83700
C1295       C  0.59819141  0.81487311  0.12175331     0.97400
C1296       C  0.61487455  0.88082674  0.01832611     1.03300
O1297       O  0.60505273  0.84858965  0.15042624    -0.79300
C1298       C  0.51295706  0.92175548  0.12384982     1.01600
Fe1299     Fe  0.56514711  0.50594437  0.86666270     1.65800
Fe1300     Fe  0.55935569  0.61090263  0.92899039     1.73200
Fe1301     Fe  0.61921065  0.58273042  0.86736057     1.54400
O1302       O  0.63712554  0.51681854  0.88813453    -0.83000
O1303       O  0.57845811  0.67600902  0.90337618    -0.81400
O1304       O  0.60318492  0.96897108  0.86082751    -0.85600
O1305       O  0.56880813  0.52671545  0.79545156    -0.80400
O1306       O  0.62825113  0.61076529  0.93609776    -0.82200
O1307       O  0.52670316  0.61364840  0.87964637    -0.84900
C1308       C  0.59076323  0.54198997  0.77397015     0.95800
C1309       C  0.62850636  0.97557906  0.87375548     1.03300
O1310       O  0.58150861  0.56662860  0.88783038    -1.13900
O1311       O  0.54091605  0.55233182  0.96641638    -0.76300
O1312       O  0.56185983  0.48506889  0.93848895    -0.79800
O1313       O  0.61243499  0.55724837  0.79667559    -0.80500
C1314       C  0.55036234  0.50916378  0.97267515     0.94700
O1315       O  0.52471329  0.53344333  0.86850834    -0.78500
O1316       O  0.58886694  0.60965045  0.98059791    -0.83700
C1317       C  0.59811453  0.68210562  0.87258980     0.97400
C1318       C  0.61485814  0.61622331  0.97598355     1.03300
O1319       O  0.60497770  0.64838674  0.84391418    -0.79300
C1320       C  0.51293154  0.57504111  0.87054152     1.01600
Fe1321     Fe  0.67997340  0.74108968  0.12766967     1.65800
Fe1322     Fe  0.68556402  0.63620083  0.06535575     1.73200
Fe1323     Fe  0.62592398  0.66414796  0.12764052     1.54400
O1324       O  0.63314628  0.68940660  0.19838576    -0.83000
O1325       O  0.65589982  0.63782318  0.01405755    -0.81400
O1326       O  0.67666715  0.72044060  0.19885932    -0.85600
O1327       O  0.64194816  0.77807748  0.13372551    -0.80400
O1328       O  0.64019895  0.59832338  0.15058357    -0.82200
O1329       O  0.70403919  0.69475783  0.02805898    -0.84900
C1330       C  0.61658303  0.77140338  0.12106755     0.95800
C1331       C  0.65493587  0.70483692  0.22070888     1.03300
O1332       O  0.66353513  0.68036841  0.10676546    -1.13900
O1333       O  0.71827852  0.63322658  0.11455771    -0.76300
O1334       O  0.72038540  0.71346257  0.12556047    -0.79800
O1335       O  0.60787384  0.73005387  0.10721913    -0.80500
C1336       C  0.73209871  0.67178583  0.12367713     0.94700
O1337       O  0.68300236  0.76192957  0.05588070    -0.78500
O1338       O  0.66648767  0.57104086  0.09068913    -0.83700
C1339       C  0.62992173  0.63114486  0.01883208     0.97400
C1340       C  0.64691200  0.56479781  0.12156666     1.03300
O1341       O  0.61660533  0.63638965  0.05883954    -0.79300
C1342       C  0.69451950  0.73784856  0.02173999     1.01600
Fe1343     Fe  0.67992887  0.75579171  0.86674680     1.65800
Fe1344     Fe  0.68558252  0.86075367  0.92893033     1.73200
Fe1345     Fe  0.62591373  0.83283057  0.86668297     1.54400
O1346       O  0.63313767  0.80751171  0.79595512    -0.83000
O1347       O  0.65591319  0.85926643  0.98022410    -0.81400
O1348       O  0.67662956  0.77634113  0.79553450    -0.85600
O1349       O  0.64189357  0.71884761  0.86073250    -0.80400
O1350       O  0.64022155  0.89864156  0.84372690    -0.82200
O1351       O  0.70401810  0.80220950  0.96631279    -0.84900
C1352       C  0.61651983  0.72556565  0.87331121     0.95800
C1353       C  0.65491081  0.79195905  0.77366071     1.03300
O1354       O  0.66352074  0.81657167  0.88757630    -1.13900
O1355       O  0.71830842  0.86359144  0.87972999    -0.76300
O1356       O  0.72035571  0.78334018  0.86880697    -0.79800
O1357       O  0.60781576  0.76694380  0.88710182    -0.80500
C1358       C  0.73209987  0.82498917  0.87064237     0.94700
O1359       O  0.68295646  0.73503553  0.93855546    -0.78500
O1360       O  0.66655371  0.92593834  0.90354880    -0.83700
C1361       C  0.62993100  0.86591379  0.97546579     0.97400
C1362       C  0.64695097  0.93217553  0.87272619     1.03300
O1363       O  0.61660359  0.86062505  0.93547577    -0.79300
C1364       C  0.69449918  0.75912352  0.97266225     1.01600
Fe1365     Fe  0.81516147  0.74079315  0.12768180     1.65800
Fe1366     Fe  0.80936794  0.63584674  0.06534741     1.73200
Fe1367     Fe  0.86922177  0.66399203  0.12698271     1.54400
O1368       O  0.88714490  0.72990093  0.10621621    -0.83000
O1369       O  0.82847033  0.57073218  0.09094405    -0.81400
O1370       O  0.85320174  0.77775767  0.13351257    -0.85600
O1371       O  0.81882027  0.72001826  0.19888986    -0.80400
O1372       O  0.87826058  0.63596116  0.05824272    -0.82200
O1373       O  0.77671725  0.63309108  0.11469337    -0.84900
C1374       C  0.84077416  0.70474231  0.22037183     0.95800
C1375       C  0.87852440  0.77114493  0.12058675     1.03300
O1376       O  0.83152189  0.68010878  0.10651189    -1.13900
O1377       O  0.79092552  0.69442464  0.02793390    -0.76300
O1378       O  0.81187509  0.76167793  0.05585857    -0.79800
O1379       O  0.86244552  0.68947241  0.19766831    -0.80500
C1380       C  0.80037187  0.73759152  0.02167531     0.94700
O1381       O  0.77472612  0.71329579  0.12583485    -0.78500
O1382       O  0.83887800  0.63711652  0.01374333    -0.83700
C1383       C  0.84811999  0.56462592  0.12173855     0.97400
C1384       C  0.86486714  0.63052493  0.01835640     1.03300
O1385       O  0.85497891  0.59833950  0.15042158    -0.79300
C1386       C  0.76294392  0.67169910  0.12379333     1.01600
Fe1387     Fe  0.81513200  0.75581704  0.86655518     1.65800
Fe1388     Fe  0.80938587  0.86071687  0.92897615     1.73200
Fe1389     Fe  0.86923130  0.83251375  0.86736764     1.54400
O1390       O  0.88709660  0.76658934  0.88816782    -0.83000
O1391       O  0.82853138  0.92579972  0.90339995    -0.81400
O1392       O  0.85316461  0.71880605  0.86071466    -0.85600
O1393       O  0.81881409  0.77668151  0.79537240    -0.80400
O1394       O  0.87826718  0.86050969  0.93611792    -0.82200
O1395       O  0.77674839  0.86356853  0.87961415    -0.84900
C1396       C  0.84078220  0.79194776  0.77392356     0.95800
C1397       C  0.87847493  0.72537374  0.87373942     1.03300
O1398       O  0.83151861  0.81645112  0.88779268    -1.13900
O1399       O  0.79091208  0.80213478  0.96633340    -0.76300
O1400       O  0.81183180  0.73487004  0.93835913    -0.79800
O1401       O  0.86246951  0.80708454  0.79666324    -0.80500
C1402       C  0.80035529  0.75896059  0.97256935     0.94700
O1403       O  0.77470281  0.78337675  0.86842277    -0.78500
O1404       O  0.83888206  0.85936171  0.98060643    -0.83700
C1405       C  0.84817527  0.93189672  0.87258737     0.97400
C1406       C  0.86487392  0.86592785  0.97600687     1.03300
O1407       O  0.85503703  0.89817981  0.84391359    -0.79300
C1408       C  0.76294696  0.82499844  0.87049771     1.01600
loop_ 
_geom_bond_atom_site_label_1 
_geom_bond_atom_site_label_2 
_geom_bond_distance 
_geom_bond_site_symmetry_2 
_ccdc_geom_bond_type 
Fe1          O17   2.071       .  S
Fe1           O7   2.052       .  S
Fe1          O14   2.068       .  S
Fe1         O358   2.084       .  S
Fe1          O12   1.928       .  S
Fe2           O5   2.124       .  S
Fe2           O9   2.069       .  S
Fe2          O13   2.101       .  S
Fe2          O18   2.002       .  S
Fe2          O12   1.969       .  S
Fe3          O21   2.029       .  S
Fe3           O8   2.090       .  S
Fe3          O15   2.095       .  S
Fe3           O4   2.078       .  S
Fe3          O12   1.935       .  S
O4          C363   1.266       .  A
O5           C19   1.276       .  A
O6         Fe353   2.084   1_545  S
O6           C11   1.272       .  A
O7           C10   1.274       .  A
O8           C20   1.281       .  A
O9           C22   1.270       .  A
C10          O15   1.279       .  A
C10         C187   1.469       .  S
C11         O356   1.266   1_545  A
C11         C152   1.479       .  S
O13          C16   1.278       .  A
O14          C16   1.275       .  A
C16         C390   1.475       .  S
O17          C22   1.272       .  A
O18          C20   1.259       .  A
C19          O21   1.259       .  A
C19         C142   1.479       .  S
C20         C173   1.442       .  S
C22         C764   1.471       .  S
Fe23         O39   2.071       .  S
Fe23         O29   2.052       .  S
Fe23         O36   2.067   1_545  S
Fe23        O380   2.084   1_545  S
Fe23         O34   1.928       .  S
Fe24         O27   2.124       .  S
Fe24         O31   2.069       .  S
Fe24         O35   2.101       .  S
Fe24         O40   2.002       .  S
Fe24         O34   1.969       .  S
Fe25         O43   2.029       .  S
Fe25         O30   2.090       .  S
Fe25         O37   2.095       .  S
Fe25         O26   2.079       .  S
Fe25         O34   1.935       .  S
O26         C385   1.266   1_545  A
O27          C41   1.276       .  A
O28        Fe375   2.084       .  S
O28          C33   1.272       .  A
O29          C32   1.274       .  A
O30          C42   1.281       .  A
O31          C44   1.270       .  A
C32          O37   1.279       .  A
C32         C209   1.468       .  S
C33         O378   1.266       .  A
C33         C174   1.480       .  S
O35          C38   1.278       .  A
O36          C38   1.275   1_565  A
C38         C368   1.475   1_545  S
O39          C44   1.272       .  A
O40          C42   1.259       .  A
C41          O43   1.260       .  A
C41         C164   1.480       .  S
C42         C151   1.442       .  S
C44         C786   1.471       .  S
Fe45         O58   2.071       .  S
Fe45         O50   2.049       .  S
Fe45        O413   2.065       .  S
Fe45        O403   2.084       .  S
Fe45         O56   1.928       .  S
Fe46         O49   2.001       .  S
Fe46         O53   2.100       .  S
Fe46         O57   2.069       .  S
Fe46         O62   2.123       .  S
Fe46         O56   1.968       .  S
Fe47         O65   2.092       .  S
Fe47         O52   2.030       .  S
Fe47         O59   2.079       .  S
Fe47         O48   2.099       .  S
Fe47         O56   1.936       .  S
O48          C55   1.280       .  A
O49          C63   1.259       .  A
O50          C55   1.273       .  A
O51        Fe397   2.084   1_545  S
O51          C54   1.272       .  A
O52          C64   1.260       .  A
O53          C66   1.277       .  A
C54         O411   1.266   1_545  A
C54         C107   1.480       .  S
C55         C230   1.468       .  S
O57          C60   1.271       .  A
O58          C60   1.272       .  A
O59         C406   1.266       .  A
C60         C726   1.471   1_455  S
O61        Fe397   2.065   1_545  S
O61         C418   1.274   1_545  A
O62          C64   1.275       .  A
C63          O65   1.281       .  A
C63         C130   1.442       .  S
C64          C99   1.480       .  S
C66         O413   1.274       .  A
C66         C440   1.474       .  S
Fe67         O80   2.071       .  S
Fe67         O72   2.049       .  S
Fe67        O435   2.065   1_545  S
Fe67        O425   2.084   1_545  S
Fe67         O78   1.928       .  S
Fe68         O71   2.001       .  S
Fe68         O75   2.100       .  S
Fe68         O79   2.069       .  S
Fe68         O84   2.122       .  S
Fe68         O78   1.968       .  S
Fe69         O87   2.092       .  S
Fe69         O74   2.029       .  S
Fe69         O81   2.079       .  S
Fe69         O70   2.098       .  S
Fe69         O78   1.935       .  S
O70          C77   1.280       .  A
O71          C85   1.259       .  A
O72          C77   1.273       .  A
O73        Fe419   2.084       .  S
O73          C76   1.272       .  A
O74          C86   1.260       .  A
O75          C88   1.277       .  A
C76         O433   1.266       .  A
C76         C129   1.479       .  S
C77         C252   1.469       .  S
O79          C82   1.271       .  A
O80          C82   1.273       .  A
O81         C428   1.266   1_545  A
C82         C748   1.471   1_455  S
O83        Fe419   2.065       .  S
O83         C440   1.274       .  A
O84          C86   1.275       .  A
C85          O87   1.281       .  A
C85         C108   1.442       .  S
C86         C121   1.479       .  S
C88         O435   1.274   1_545  A
C88         C418   1.474   1_545  S
Fe89        O105   2.071       .  S
Fe89         O95   2.052       .  S
Fe89        O102   2.068       .  S
Fe89         O94   2.084       .  S
Fe89        O100   1.928       .  S
Fe90         O93   2.124       .  S
Fe90         O97   2.069       .  S
Fe90        O101   2.101       .  S
Fe90        O106   2.002       .  S
Fe90        O100   1.969       .  S
Fe91        O109   2.029       .  S
Fe91         O96   2.090       .  S
Fe91        O103   2.096       .  S
Fe91         O92   2.079       .  S
Fe91        O100   1.935       .  S
O92          C99   1.266       .  A
O93         C107   1.276       .  A
O94          C99   1.272       .  A
O95          C98   1.274       .  A
O96         C108   1.281       .  A
O97         C110   1.270       .  A
C98         O103   1.279       .  A
C98         C275   1.469       .  S
O101        C104   1.278       .  A
O102        C104   1.275       .  A
C104        C126   1.475       .  S
O105        C110   1.272       .  A
O106        C108   1.259       .  A
C107        O109   1.260       .  A
C110        C148   1.471       .  S
Fe111       O127   2.071       .  S
Fe111       O117   2.052       .  S
Fe111       O124   2.067       .  S
Fe111       O116   2.084       .  S
Fe111       O122   1.928       .  S
Fe112       O115   2.124       .  S
Fe112       O119   2.069       .  S
Fe112       O123   2.101       .  S
Fe112       O128   2.002       .  S
Fe112       O122   1.969       .  S
Fe113       O131   2.029       .  S
Fe113       O118   2.090       .  S
Fe113       O125   2.095       .  S
Fe113       O114   2.078       .  S
Fe113       O122   1.935       .  S
O114        C121   1.266       .  A
O115        C129   1.276       .  A
O116        C121   1.272       .  A
O117        C120   1.274       .  A
O118        C130   1.281       .  A
O119        C132   1.270       .  A
C120        O125   1.279       .  A
C120        C297   1.468       .  S
O123        C126   1.278       .  A
O124        C126   1.275       .  A
O127        C132   1.272       .  A
O128        C130   1.259       .  A
C129        O131   1.259       .  A
C132        C170   1.471       .  S
Fe133       O149   2.065       .  S
Fe133       O139   2.084       .  S
Fe133       O146   2.071       .  S
Fe133       O138   2.049       .  S
Fe133       O144   1.928       .  S
Fe134       O137   2.001       .  S
Fe134       O141   2.100       .  S
Fe134       O145   2.069       .  S
Fe134       O150   2.123       .  S
Fe134       O144   1.968       .  S
Fe135       O153   2.092       .  S
Fe135       O140   2.029       .  S
Fe135       O147   2.079       .  S
Fe135       O136   2.098       .  S
Fe135       O144   1.935       .  S
O136        C143   1.280       .  A
O137        C151   1.259       .  A
O138        C143   1.273       .  A
O139        C142   1.272       .  A
O140        C152   1.260       .  A
O141        C154   1.277       .  A
C142        O147   1.266       .  A
C143        C318   1.468       .  S
O145        C148   1.271       .  A
O146        C148   1.273       .  A
O149        C154   1.274       .  A
O150        C152   1.275       .  A
C151        O153   1.281       .  A
C154        C176   1.474       .  S
Fe155       O171   2.065       .  S
Fe155       O161   2.084       .  S
Fe155       O168   2.071       .  S
Fe155       O160   2.049       .  S
Fe155       O166   1.928       .  S
Fe156       O159   2.001       .  S
Fe156       O163   2.100       .  S
Fe156       O167   2.069       .  S
Fe156       O172   2.123       .  S
Fe156       O166   1.968       .  S
Fe157       O175   2.092       .  S
Fe157       O162   2.030       .  S
Fe157       O169   2.079       .  S
Fe157       O158   2.099       .  S
Fe157       O166   1.936       .  S
O158        C165   1.280       .  A
O159        C173   1.259       .  A
O160        C165   1.273       .  A
O161        C164   1.272       .  A
O162        C174   1.260       .  A
O163        C176   1.277       .  A
C164        O169   1.266       .  A
C165        C340   1.469       .  S
O167        C170   1.271       .  A
O168        C170   1.272       .  A
O171        C176   1.274       .  A
O172        C174   1.275       .  A
C173        O175   1.281       .  A
Fe177       O190   2.071       .  S
Fe177       O182   2.049       .  S
Fe177       O545   2.065       .  S
Fe177       O535   2.084       .  S
Fe177       O188   1.928       .  S
Fe178       O181   2.001       .  S
Fe178       O185   2.100       .  S
Fe178       O189   2.069       .  S
Fe178       O194   2.123       .  S
Fe178       O188   1.968       .  S
Fe179       O197   2.092       .  S
Fe179       O184   2.030       .  S
Fe179       O191   2.079       .  S
Fe179       O180   2.099       .  S
Fe179       O188   1.936       .  S
O180        C187   1.280       .  A
O181        C195   1.259       .  A
O182        C187   1.273       .  A
O183       Fe529   2.084   1_545  S
O183        C186   1.272       .  A
O184        C196   1.260       .  A
O185        C198   1.277       .  A
C186        O543   1.266   1_545  A
C186        C327   1.480       .  S
O189        C192   1.271       .  A
O190        C192   1.272       .  A
O191        C538   1.266       .  A
C192        C946   1.471       .  S
O193       Fe529   2.065   1_545  S
O193        C550   1.274   1_545  A
O194        C196   1.275       .  A
C195        O197   1.281       .  A
C195        C350   1.442   1_554  S
C196        C319   1.480       .  S
C198        O545   1.274       .  A
C198        C572   1.474   1_554  S
Fe199       O212   2.071       .  S
Fe199       O204   2.049       .  S
Fe199       O567   2.065   1_545  S
Fe199       O557   2.084   1_545  S
Fe199       O210   1.928       .  S
Fe200       O203   2.001       .  S
Fe200       O207   2.100       .  S
Fe200       O211   2.069       .  S
Fe200       O216   2.123       .  S
Fe200       O210   1.968       .  S
Fe201       O219   2.092       .  S
Fe201       O206   2.029       .  S
Fe201       O213   2.079       .  S
Fe201       O202   2.098       .  S
Fe201       O210   1.935       .  S
O202        C209   1.280       .  A
O203        C217   1.259       .  A
O204        C209   1.273       .  A
O205       Fe551   2.084       .  S
O205        C208   1.272       .  A
O206        C218   1.260       .  A
O207        C220   1.277       .  A
C208        O565   1.266       .  A
C208        C349   1.480       .  S
O211        C214   1.271       .  A
O212        C214   1.273       .  A
O213        C560   1.266   1_545  A
C214        C968   1.471       .  S
O215       Fe551   2.065       .  S
O215        C572   1.274       .  A
O216        C218   1.275       .  A
C217        O219   1.281       .  A
C217        C328   1.442   1_556  S
C218        C341   1.479       .  S
C220        O567   1.274   1_545  A
C220        C550   1.474   1_546  S
Fe221       O237   2.071       .  S
Fe221       O227   2.052       .  S
Fe221       O234   2.068       .  S
Fe221       O578   2.084       .  S
Fe221       O232   1.928       .  S
Fe222       O225   2.124       .  S
Fe222       O229   2.069       .  S
Fe222       O233   2.101       .  S
Fe222       O238   2.002       .  S
Fe222       O232   1.969       .  S
Fe223       O241   2.029       .  S
Fe223       O228   2.090       .  S
Fe223       O235   2.095       .  S
Fe223       O224   2.078       .  S
Fe223       O232   1.935       .  S
O224        C583   1.266       .  A
O225        C239   1.276       .  A
O226       Fe573   2.084   1_545  S
O226        C231   1.272       .  A
O227        C230   1.274       .  A
O228        C240   1.281       .  A
O229        C242   1.270       .  A
C230        O235   1.279       .  A
C231        O576   1.266   1_545  A
C231        C284   1.479       .  S
O233        C236   1.278       .  A
O234        C236   1.275       .  A
C236        C610   1.475   1_554  S
O237        C242   1.272       .  A
O238        C240   1.259       .  A
C239        O241   1.259       .  A
C239        C274   1.479       .  S
C240        C305   1.442   1_554  S
C242        C896   1.471   1_455  S
Fe243       O259   2.071       .  S
Fe243       O249   2.052       .  S
Fe243       O256   2.068   1_545  S
Fe243       O600   2.084   1_545  S
Fe243       O254   1.928       .  S
Fe244       O247   2.124       .  S
Fe244       O251   2.069       .  S
Fe244       O255   2.101       .  S
Fe244       O260   2.002       .  S
Fe244       O254   1.969       .  S
Fe245       O263   2.029       .  S
Fe245       O250   2.090       .  S
Fe245       O257   2.096       .  S
Fe245       O246   2.079       .  S
Fe245       O254   1.935       .  S
O246        C605   1.266   1_545  A
O247        C261   1.276       .  A
O248       Fe595   2.084       .  S
O248        C253   1.272       .  A
O249        C252   1.274       .  A
O250        C262   1.281       .  A
O251        C264   1.270       .  A
C252        O257   1.279       .  A
C253        O598   1.266       .  A
C253        C306   1.480       .  S
O255        C258   1.278       .  A
O256        C258   1.275   1_565  A
C258        C588   1.475   1_546  S
O259        C264   1.272       .  A
O260        C262   1.259       .  A
C261        O263   1.260       .  A
C261        C296   1.480       .  S
C262        C283   1.442   1_556  S
C264        C918   1.471   1_455  S
Fe265       O281   2.065       .  S
Fe265       O271   2.084       .  S
Fe265       O278   2.071       .  S
Fe265       O270   2.049       .  S
Fe265       O276   1.928       .  S
Fe266       O269   2.001       .  S
Fe266       O273   2.100       .  S
Fe266       O277   2.069       .  S
Fe266       O282   2.122       .  S
Fe266       O276   1.968       .  S
Fe267       O285   2.092       .  S
Fe267       O272   2.029       .  S
Fe267       O279   2.079       .  S
Fe267       O268   2.098       .  S
Fe267       O276   1.935       .  S
O268        C275   1.280       .  A
O269        C283   1.259       .  A
O270        C275   1.273       .  A
O271        C274   1.272       .  A
O272        C284   1.260       .  A
O273        C286   1.277       .  A
C274        O279   1.266       .  A
O277        C280   1.271       .  A
O278        C280   1.273       .  A
C280        C330   1.471       .  S
O281        C286   1.274       .  A
O282        C284   1.275       .  A
C283        O285   1.281       .  A
C286        C308   1.474   1_554  S
Fe287       O303   2.065       .  S
Fe287       O293   2.084       .  S
Fe287       O300   2.071       .  S
Fe287       O292   2.049       .  S
Fe287       O298   1.928       .  S
Fe288       O291   2.001       .  S
Fe288       O295   2.100       .  S
Fe288       O299   2.069       .  S
Fe288       O304   2.122       .  S
Fe288       O298   1.968       .  S
Fe289       O307   2.092       .  S
Fe289       O294   2.030       .  S
Fe289       O301   2.079       .  S
Fe289       O290   2.099       .  S
Fe289       O298   1.936       .  S
O290        C297   1.280       .  A
O291        C305   1.259       .  A
O292        C297   1.273       .  A
O293        C296   1.272       .  A
O294        C306   1.260       .  A
O295        C308   1.277       .  A
C296        O301   1.266       .  A
O299        C302   1.271       .  A
O300        C302   1.273       .  A
C302        C352   1.471       .  S
O303        C308   1.274       .  A
O304        C306   1.275       .  A
C305        O307   1.281       .  A
Fe309       O325   2.071       .  S
Fe309       O315   2.052       .  S
Fe309       O322   2.067       .  S
Fe309       O314   2.084       .  S
Fe309       O320   1.928       .  S
Fe310       O313   2.124       .  S
Fe310       O317   2.069       .  S
Fe310       O321   2.101       .  S
Fe310       O326   2.001       .  S
Fe310       O320   1.969       .  S
Fe311       O329   2.029       .  S
Fe311       O316   2.090       .  S
Fe311       O323   2.095       .  S
Fe311       O312   2.079       .  S
Fe311       O320   1.935       .  S
O312        C319   1.266       .  A
O313        C327   1.276       .  A
O314        C319   1.272       .  A
O315        C318   1.274       .  A
O316        C328   1.281       .  A
O317        C330   1.270       .  A
C318        O323   1.279       .  A
O321        C324   1.278       .  A
O322        C324   1.275       .  A
C324        C346   1.475   1_554  S
O325        C330   1.272       .  A
O326        C328   1.259       .  A
C327        O329   1.260       .  A
Fe331       O347   2.071       .  S
Fe331       O337   2.052       .  S
Fe331       O344   2.068       .  S
Fe331       O336   2.084       .  S
Fe331       O342   1.928       .  S
Fe332       O335   2.124       .  S
Fe332       O339   2.069       .  S
Fe332       O343   2.101       .  S
Fe332       O348   2.002       .  S
Fe332       O342   1.969       .  S
Fe333       O351   2.029       .  S
Fe333       O338   2.090       .  S
Fe333       O345   2.095       .  S
Fe333       O334   2.078       .  S
Fe333       O342   1.935       .  S
O334        C341   1.266       .  A
O335        C349   1.276       .  A
O336        C341   1.272       .  A
O337        C340   1.274       .  A
O338        C350   1.281       .  A
O339        C352   1.270       .  A
C340        O345   1.279       .  A
O343        C346   1.278       .  A
O344        C346   1.275       .  A
O347        C352   1.272       .  A
O348        C350   1.259       .  A
C349        O351   1.259       .  A
Fe353       O369   2.071       .  S
Fe353       O359   2.052       .  S
Fe353       O366   2.068   1_565  S
Fe353       O364   1.928       .  S
Fe354       O357   2.124       .  S
Fe354       O361   2.069       .  S
Fe354       O365   2.101       .  S
Fe354       O370   2.002       .  S
Fe354       O364   1.969       .  S
Fe355       O373   2.029       .  S
Fe355       O360   2.090       .  S
Fe355       O367   2.095       .  S
Fe355       O356   2.078       .  S
Fe355       O364   1.935       .  S
O357        C371   1.276       .  A
O358        C363   1.272       .  A
O359        C362   1.274       .  A
O360        C372   1.281       .  A
O361        C374   1.270       .  A
C362        O367   1.279       .  A
C362        C539   1.469       .  S
C363        C504   1.479       .  S
O365        C368   1.278       .  A
O366        C368   1.275   1_545  A
O369        C374   1.272       .  A
O370        C372   1.259       .  A
C371        O373   1.259       .  A
C371        C494   1.479       .  S
C372        C525   1.442       .  S
C374       C1116   1.471       .  S
Fe375       O391   2.071       .  S
Fe375       O381   2.052       .  S
Fe375       O388   2.067       .  S
Fe375       O386   1.928       .  S
Fe376       O379   2.124       .  S
Fe376       O383   2.069       .  S
Fe376       O387   2.101       .  S
Fe376       O392   2.002       .  S
Fe376       O386   1.969       .  S
Fe377       O395   2.029       .  S
Fe377       O382   2.090       .  S
Fe377       O389   2.095       .  S
Fe377       O378   2.079       .  S
Fe377       O386   1.935       .  S
O379        C393   1.276       .  A
O380        C385   1.272       .  A
O381        C384   1.274       .  A
O382        C394   1.281       .  A
O383        C396   1.270       .  A
C384        O389   1.279       .  A
C384        C561   1.468       .  S
C385        C526   1.480       .  S
O387        C390   1.278       .  A
O388        C390   1.275       .  A
O391        C396   1.272       .  A
O392        C394   1.259       .  A
C393        O395   1.260       .  A
C393        C516   1.480       .  S
C394        C503   1.442       .  S
C396       C1138   1.471       .  S
Fe397       O410   2.071       .  S
Fe397       O402   2.049       .  S
Fe397       O408   1.928       .  S
Fe398       O401   2.001       .  S
Fe398       O405   2.100       .  S
Fe398       O409   2.069       .  S
Fe398       O414   2.123       .  S
Fe398       O408   1.968       .  S
Fe399       O417   2.092       .  S
Fe399       O404   2.030       .  S
Fe399       O411   2.079       .  S
Fe399       O400   2.099       .  S
Fe399       O408   1.936       .  S
O400        C407   1.280       .  A
O401        C415   1.259       .  A
O402        C407   1.273       .  A
O403        C406   1.272       .  A
O404        C416   1.260       .  A
O405        C418   1.277       .  A
C406        C459   1.480       .  S
C407        C582   1.468       .  S
O409        C412   1.271       .  A
O410        C412   1.272       .  A
C412       C1078   1.471   1_455  S
O414        C416   1.275       .  A
C415        O417   1.281       .  A
C415        C482   1.442       .  S
C416        C451   1.480       .  S
Fe419       O432   2.071       .  S
Fe419       O424   2.049       .  S
Fe419       O430   1.928       .  S
Fe420       O423   2.001       .  S
Fe420       O427   2.100       .  S
Fe420       O431   2.069       .  S
Fe420       O436   2.122       .  S
Fe420       O430   1.968       .  S
Fe421       O439   2.092       .  S
Fe421       O426   2.029       .  S
Fe421       O433   2.079       .  S
Fe421       O422   2.098       .  S
Fe421       O430   1.935       .  S
O422        C429   1.280       .  A
O423        C437   1.259       .  A
O424        C429   1.273       .  A
O425        C428   1.272       .  A
O426        C438   1.260       .  A
O427        C440   1.277       .  A
C428        C481   1.479       .  S
C429        C604   1.469       .  S
O431        C434   1.271       .  A
O432        C434   1.273       .  A
C434       C1100   1.471   1_455  S
O436        C438   1.275       .  A
C437        O439   1.281       .  A
C437        C460   1.442       .  S
C438        C473   1.479       .  S
Fe441       O457   2.071       .  S
Fe441       O447   2.052       .  S
Fe441       O454   2.068       .  S
Fe441       O446   2.084       .  S
Fe441       O452   1.928       .  S
Fe442       O445   2.124       .  S
Fe442       O449   2.069       .  S
Fe442       O453   2.101       .  S
Fe442       O458   2.002       .  S
Fe442       O452   1.969       .  S
Fe443       O461   2.029       .  S
Fe443       O448   2.090       .  S
Fe443       O455   2.096       .  S
Fe443       O444   2.079       .  S
Fe443       O452   1.935       .  S
O444        C451   1.266       .  A
O445        C459   1.276       .  A
O446        C451   1.272       .  A
O447        C450   1.274       .  A
O448        C460   1.281       .  A
O449        C462   1.270       .  A
C450        O455   1.279       .  A
C450        C627   1.469       .  S
O453        C456   1.278       .  A
O454        C456   1.275       .  A
C456        C478   1.475       .  S
O457        C462   1.272       .  A
O458        C460   1.259       .  A
C459        O461   1.260       .  A
C462        C500   1.471       .  S
Fe463       O479   2.071       .  S
Fe463       O469   2.052       .  S
Fe463       O476   2.067       .  S
Fe463       O468   2.084       .  S
Fe463       O474   1.928       .  S
Fe464       O467   2.124       .  S
Fe464       O471   2.069       .  S
Fe464       O475   2.101       .  S
Fe464       O480   2.002       .  S
Fe464       O474   1.969       .  S
Fe465       O483   2.029       .  S
Fe465       O470   2.090       .  S
Fe465       O477   2.095       .  S
Fe465       O466   2.078       .  S
Fe465       O474   1.935       .  S
O466        C473   1.266       .  A
O467        C481   1.276       .  A
O468        C473   1.272       .  A
O469        C472   1.274       .  A
O470        C482   1.281       .  A
O471        C484   1.270       .  A
C472        O477   1.279       .  A
C472        C649   1.468       .  S
O475        C478   1.278       .  A
O476        C478   1.275       .  A
O479        C484   1.272       .  A
O480        C482   1.259       .  A
C481        O483   1.259       .  A
C484        C522   1.471       .  S
Fe485       O501   2.065       .  S
Fe485       O491   2.084       .  S
Fe485       O498   2.071       .  S
Fe485       O490   2.049       .  S
Fe485       O496   1.928       .  S
Fe486       O489   2.001       .  S
Fe486       O493   2.100       .  S
Fe486       O497   2.069       .  S
Fe486       O502   2.123       .  S
Fe486       O496   1.968       .  S
Fe487       O505   2.092       .  S
Fe487       O492   2.029       .  S
Fe487       O499   2.079       .  S
Fe487       O488   2.098       .  S
Fe487       O496   1.935       .  S
O488        C495   1.280       .  A
O489        C503   1.259       .  A
O490        C495   1.273       .  A
O491        C494   1.272       .  A
O492        C504   1.260       .  A
O493        C506   1.277       .  A
C494        O499   1.266       .  A
C495        C670   1.468       .  S
O497        C500   1.271       .  A
O498        C500   1.273       .  A
O501        C506   1.274       .  A
O502        C504   1.275       .  A
C503        O505   1.281       .  A
C506        C528   1.474       .  S
Fe507       O523   2.065       .  S
Fe507       O513   2.084       .  S
Fe507       O520   2.071       .  S
Fe507       O512   2.049       .  S
Fe507       O518   1.928       .  S
Fe508       O511   2.001       .  S
Fe508       O515   2.100       .  S
Fe508       O519   2.069       .  S
Fe508       O524   2.123       .  S
Fe508       O518   1.968       .  S
Fe509       O527   2.092       .  S
Fe509       O514   2.030       .  S
Fe509       O521   2.079       .  S
Fe509       O510   2.099       .  S
Fe509       O518   1.936       .  S
O510        C517   1.280       .  A
O511        C525   1.259       .  A
O512        C517   1.273       .  A
O513        C516   1.272       .  A
O514        C526   1.260       .  A
O515        C528   1.277       .  A
C516        O521   1.266       .  A
C517        C692   1.469       .  S
O519        C522   1.271       .  A
O520        C522   1.272       .  A
O523        C528   1.274       .  A
O524        C526   1.275       .  A
C525        O527   1.281       .  A
Fe529       O542   2.071       .  S
Fe529       O534   2.049       .  S
Fe529       O540   1.928       .  S
Fe530       O533   2.001       .  S
Fe530       O537   2.100       .  S
Fe530       O541   2.069       .  S
Fe530       O546   2.123       .  S
Fe530       O540   1.968       .  S
Fe531       O549   2.092       .  S
Fe531       O536   2.030       .  S
Fe531       O543   2.079       .  S
Fe531       O532   2.099       .  S
Fe531       O540   1.936       .  S
O532        C539   1.280       .  A
O533        C547   1.259       .  A
O534        C539   1.273       .  A
O535        C538   1.272       .  A
O536        C548   1.260       .  A
O537        C550   1.277       .  A
C538        C679   1.480       .  S
O541        C544   1.271       .  A
O542        C544   1.272       .  A
C544       C1298   1.471       .  S
O546        C548   1.275       .  A
C547        O549   1.281       .  A
C547        C702   1.442   1_554  S
C548        C671   1.480       .  S
Fe551       O564   2.071       .  S
Fe551       O556   2.049       .  S
Fe551       O562   1.928       .  S
Fe552       O555   2.001       .  S
Fe552       O559   2.100       .  S
Fe552       O563   2.069       .  S
Fe552       O568   2.123       .  S
Fe552       O562   1.968       .  S
Fe553       O571   2.092       .  S
Fe553       O558   2.029       .  S
Fe553       O565   2.079       .  S
Fe553       O554   2.098       .  S
Fe553       O562   1.935       .  S
O554        C561   1.280       .  A
O555        C569   1.259       .  A
O556        C561   1.273       .  A
O557        C560   1.272       .  A
O558        C570   1.260       .  A
O559        C572   1.277       .  A
C560        C701   1.480       .  S
O563        C566   1.271       .  A
O564        C566   1.273       .  A
C566       C1320   1.471       .  S
O568        C570   1.275       .  A
C569        O571   1.281       .  A
C569        C680   1.442   1_556  S
C570        C693   1.479       .  S
Fe573       O589   2.071       .  S
Fe573       O579   2.052       .  S
Fe573       O586   2.068   1_565  S
Fe573       O584   1.928       .  S
Fe574       O577   2.124       .  S
Fe574       O581   2.069       .  S
Fe574       O585   2.101       .  S
Fe574       O590   2.002       .  S
Fe574       O584   1.969       .  S
Fe575       O593   2.029       .  S
Fe575       O580   2.090       .  S
Fe575       O587   2.095       .  S
Fe575       O576   2.078       .  S
Fe575       O584   1.935       .  S
O577        C591   1.276       .  A
O578        C583   1.272       .  A
O579        C582   1.274       .  A
O580        C592   1.281       .  A
O581        C594   1.270       .  A
C582        O587   1.279       .  A
C583        C636   1.479       .  S
O585        C588   1.278       .  A
O586        C588   1.275   1_545  A
O589        C594   1.272       .  A
O590        C592   1.259       .  A
C591        O593   1.259       .  A
C591        C626   1.479       .  S
C592        C657   1.442   1_554  S
C594       C1248   1.471   1_455  S
Fe595       O611   2.071       .  S
Fe595       O601   2.052       .  S
Fe595       O608   2.068       .  S
Fe595       O606   1.928       .  S
Fe596       O599   2.124       .  S
Fe596       O603   2.069       .  S
Fe596       O607   2.101       .  S
Fe596       O612   2.002       .  S
Fe596       O606   1.969       .  S
Fe597       O615   2.029       .  S
Fe597       O602   2.090       .  S
Fe597       O609   2.096       .  S
Fe597       O598   2.079       .  S
Fe597       O606   1.935       .  S
O599        C613   1.276       .  A
O600        C605   1.272       .  A
O601        C604   1.274       .  A
O602        C614   1.281       .  A
O603        C616   1.270       .  A
C604        O609   1.279       .  A
C605        C658   1.480       .  S
O607        C610   1.278       .  A
O608        C610   1.275       .  A
O611        C616   1.272       .  A
O612        C614   1.259       .  A
C613        O615   1.260       .  A
C613        C648   1.480       .  S
C614        C635   1.442   1_556  S
C616       C1270   1.471   1_455  S
Fe617       O633   2.065       .  S
Fe617       O623   2.084       .  S
Fe617       O630   2.071       .  S
Fe617       O622   2.049       .  S
Fe617       O628   1.928       .  S
Fe618       O621   2.001       .  S
Fe618       O625   2.100       .  S
Fe618       O629   2.069       .  S
Fe618       O634   2.122       .  S
Fe618       O628   1.968       .  S
Fe619       O637   2.092       .  S
Fe619       O624   2.029       .  S
Fe619       O631   2.079       .  S
Fe619       O620   2.098       .  S
Fe619       O628   1.935       .  S
O620        C627   1.280       .  A
O621        C635   1.259       .  A
O622        C627   1.273       .  A
O623        C626   1.272       .  A
O624        C636   1.260       .  A
O625        C638   1.277       .  A
C626        O631   1.266       .  A
O629        C632   1.271       .  A
O630        C632   1.273       .  A
C632        C682   1.471       .  S
O633        C638   1.274       .  A
O634        C636   1.275       .  A
C635        O637   1.281       .  A
C638        C660   1.474   1_554  S
Fe639       O655   2.065       .  S
Fe639       O645   2.084       .  S
Fe639       O652   2.071       .  S
Fe639       O644   2.049       .  S
Fe639       O650   1.928       .  S
Fe640       O643   2.001       .  S
Fe640       O647   2.100       .  S
Fe640       O651   2.069       .  S
Fe640       O656   2.122       .  S
Fe640       O650   1.968       .  S
Fe641       O659   2.092       .  S
Fe641       O646   2.030       .  S
Fe641       O653   2.079       .  S
Fe641       O642   2.099       .  S
Fe641       O650   1.936       .  S
O642        C649   1.280       .  A
O643        C657   1.259       .  A
O644        C649   1.273       .  A
O645        C648   1.272       .  A
O646        C658   1.260       .  A
O647        C660   1.277       .  A
C648        O653   1.266       .  A
O651        C654   1.271       .  A
O652        C654   1.273       .  A
C654        C704   1.471       .  S
O655        C660   1.274       .  A
O656        C658   1.275       .  A
C657        O659   1.281       .  A
Fe661       O677   2.071       .  S
Fe661       O667   2.052       .  S
Fe661       O674   2.067       .  S
Fe661       O666   2.084       .  S
Fe661       O672   1.928       .  S
Fe662       O665   2.124       .  S
Fe662       O669   2.069       .  S
Fe662       O673   2.101       .  S
Fe662       O678   2.001       .  S
Fe662       O672   1.969       .  S
Fe663       O681   2.029       .  S
Fe663       O668   2.090       .  S
Fe663       O675   2.096       .  S
Fe663       O664   2.079       .  S
Fe663       O672   1.935       .  S
O664        C671   1.266       .  A
O665        C679   1.276       .  A
O666        C671   1.272       .  A
O667        C670   1.274       .  A
O668        C680   1.281       .  A
O669        C682   1.270       .  A
C670        O675   1.279       .  A
O673        C676   1.278       .  A
O674        C676   1.275       .  A
C676        C698   1.475   1_554  S
O677        C682   1.272       .  A
O678        C680   1.259       .  A
C679        O681   1.260       .  A
Fe683       O699   2.071       .  S
Fe683       O689   2.052       .  S
Fe683       O696   2.068       .  S
Fe683       O688   2.084       .  S
Fe683       O694   1.928       .  S
Fe684       O687   2.124       .  S
Fe684       O691   2.069       .  S
Fe684       O695   2.101       .  S
Fe684       O700   2.002       .  S
Fe684       O694   1.969       .  S
Fe685       O703   2.029       .  S
Fe685       O690   2.090       .  S
Fe685       O697   2.095       .  S
Fe685       O686   2.078       .  S
Fe685       O694   1.935       .  S
O686        C693   1.266       .  A
O687        C701   1.276       .  A
O688        C693   1.272       .  A
O689        C692   1.274       .  A
O690        C702   1.281       .  A
O691        C704   1.270       .  A
C692        O697   1.279       .  A
O695        C698   1.278       .  A
O696        C698   1.275       .  A
O699        C704   1.272       .  A
O700        C702   1.259       .  A
C701        O703   1.259       .  A
Fe705       O721   2.071       .  S
Fe705       O711   2.052       .  S
Fe705       O718   2.068       .  S
Fe705      O1062   2.084       .  S
Fe705       O716   1.928       .  S
Fe706       O709   2.124       .  S
Fe706       O713   2.069       .  S
Fe706       O717   2.101       .  S
Fe706       O722   2.002       .  S
Fe706       O716   1.969       .  S
Fe707       O725   2.029       .  S
Fe707       O712   2.090       .  S
Fe707       O719   2.095       .  S
Fe707       O708   2.078       .  S
Fe707       O716   1.935       .  S
O708       C1067   1.266       .  A
O709        C723   1.276       .  A
O710      Fe1057   2.084   1_545  S
O710        C715   1.272       .  A
O711        C714   1.274       .  A
O712        C724   1.281       .  A
O713        C726   1.270       .  A
C714        O719   1.279       .  A
C714        C891   1.469       .  S
C715       O1060   1.266   1_545  A
C715        C856   1.479       .  S
O717        C720   1.278       .  A
O718        C720   1.275       .  A
C720       C1094   1.475       .  S
O721        C726   1.272       .  A
O722        C724   1.259       .  A
C723        O725   1.259       .  A
C723        C846   1.479       .  S
C724        C877   1.442       .  S
Fe727       O743   2.071       .  S
Fe727       O733   2.052       .  S
Fe727       O740   2.067   1_545  S
Fe727      O1084   2.084   1_545  S
Fe727       O738   1.928       .  S
Fe728       O731   2.124       .  S
Fe728       O735   2.069       .  S
Fe728       O739   2.101       .  S
Fe728       O744   2.002       .  S
Fe728       O738   1.969       .  S
Fe729       O747   2.029       .  S
Fe729       O734   2.090       .  S
Fe729       O741   2.095       .  S
Fe729       O730   2.079       .  S
Fe729       O738   1.935       .  S
O730       C1089   1.266   1_545  A
O731        C745   1.276       .  A
O732      Fe1079   2.084       .  S
O732        C737   1.272       .  A
O733        C736   1.274       .  A
O734        C746   1.281       .  A
O735        C748   1.270       .  A
C736        O741   1.279       .  A
C736        C913   1.468       .  S
C737       O1082   1.266       .  A
C737        C878   1.480       .  S
O739        C742   1.278       .  A
O740        C742   1.275   1_565  A
C742       C1072   1.475   1_545  S
O743        C748   1.272       .  A
O744        C746   1.259       .  A
C745        O747   1.260       .  A
C745        C868   1.480       .  S
C746        C855   1.442       .  S
Fe749      O1117   2.065       .  S
Fe749      O1107   2.084       .  S
Fe749       O762   2.071       .  S
Fe749       O754   2.049       .  S
Fe749       O760   1.928       .  S
Fe750       O753   2.001       .  S
Fe750       O757   2.100       .  S
Fe750       O761   2.069       .  S
Fe750       O766   2.123       .  S
Fe750       O760   1.968       .  S
Fe751       O769   2.092       .  S
Fe751       O756   2.030       .  S
Fe751       O763   2.079       .  S
Fe751       O752   2.099       .  S
Fe751       O760   1.936       .  S
O752        C759   1.280       .  A
O753        C767   1.259       .  A
O754        C759   1.273       .  A
O755      Fe1101   2.084   1_545  S
O755        C758   1.272       .  A
O756        C768   1.260       .  A
O757        C770   1.277       .  A
C758       O1115   1.266   1_545  A
C758        C811   1.480       .  S
C759        C934   1.468       .  S
O761        C764   1.271       .  A
O762        C764   1.272       .  A
O763       C1110   1.266       .  A
O765      Fe1101   2.065   1_545  S
O765       C1122   1.274   1_545  A
O766        C768   1.275       .  A
C767        O769   1.281       .  A
C767        C834   1.442       .  S
C768        C803   1.480       .  S
C770       O1117   1.274       .  A
C770       C1144   1.474       .  S
Fe771      O1139   2.065   1_545  S
Fe771      O1129   2.084   1_545  S
Fe771       O784   2.071       .  S
Fe771       O776   2.049       .  S
Fe771       O782   1.928       .  S
Fe772       O775   2.001       .  S
Fe772       O779   2.100       .  S
Fe772       O783   2.069       .  S
Fe772       O788   2.122       .  S
Fe772       O782   1.968       .  S
Fe773       O791   2.092       .  S
Fe773       O778   2.029       .  S
Fe773       O785   2.079       .  S
Fe773       O774   2.098       .  S
Fe773       O782   1.935       .  S
O774        C781   1.280       .  A
O775        C789   1.259       .  A
O776        C781   1.273       .  A
O777      Fe1123   2.084       .  S
O777        C780   1.272       .  A
O778        C790   1.260       .  A
O779        C792   1.277       .  A
C780       O1137   1.266       .  A
C780        C833   1.479       .  S
C781        C956   1.469       .  S
O783        C786   1.271       .  A
O784        C786   1.273       .  A
O785       C1132   1.266   1_545  A
O787      Fe1123   2.065       .  S
O787       C1144   1.274       .  A
O788        C790   1.275       .  A
C789        O791   1.281       .  A
C789        C812   1.442       .  S
C790        C825   1.479       .  S
C792       O1139   1.274   1_545  A
C792       C1122   1.474   1_545  S
Fe793       O809   2.071       .  S
Fe793       O799   2.052       .  S
Fe793       O806   2.068       .  S
Fe793       O798   2.084       .  S
Fe793       O804   1.928       .  S
Fe794       O797   2.124       .  S
Fe794       O801   2.069       .  S
Fe794       O805   2.101       .  S
Fe794       O810   2.002       .  S
Fe794       O804   1.969       .  S
Fe795       O813   2.029       .  S
Fe795       O800   2.090       .  S
Fe795       O807   2.096       .  S
Fe795       O796   2.079       .  S
Fe795       O804   1.935       .  S
O796        C803   1.266       .  A
O797        C811   1.276       .  A
O798        C803   1.272       .  A
O799        C802   1.274       .  A
O800        C812   1.281       .  A
O801        C814   1.270       .  A
C802        O807   1.279       .  A
C802        C979   1.469       .  S
O805        C808   1.278       .  A
O806        C808   1.275       .  A
C808        C830   1.475       .  S
O809        C814   1.272       .  A
O810        C812   1.259       .  A
C811        O813   1.260       .  A
C814        C852   1.471       .  S
Fe815       O831   2.071       .  S
Fe815       O821   2.052       .  S
Fe815       O828   2.067       .  S
Fe815       O820   2.084       .  S
Fe815       O826   1.928       .  S
Fe816       O819   2.124       .  S
Fe816       O823   2.069       .  S
Fe816       O827   2.101       .  S
Fe816       O832   2.002       .  S
Fe816       O826   1.969       .  S
Fe817       O835   2.029       .  S
Fe817       O822   2.090       .  S
Fe817       O829   2.095       .  S
Fe817       O818   2.078       .  S
Fe817       O826   1.935       .  S
O818        C825   1.266       .  A
O819        C833   1.276       .  A
O820        C825   1.272       .  A
O821        C824   1.274       .  A
O822        C834   1.281       .  A
O823        C836   1.270       .  A
C824        O829   1.279       .  A
C824       C1001   1.468       .  S
O827        C830   1.278       .  A
O828        C830   1.275       .  A
O831        C836   1.272       .  A
O832        C834   1.259       .  A
C833        O835   1.259       .  A
C836        C874   1.471       .  S
Fe837       O853   2.065       .  S
Fe837       O843   2.084       .  S
Fe837       O850   2.071       .  S
Fe837       O842   2.049       .  S
Fe837       O848   1.928       .  S
Fe838       O841   2.001       .  S
Fe838       O845   2.100       .  S
Fe838       O849   2.069       .  S
Fe838       O854   2.123       .  S
Fe838       O848   1.968       .  S
Fe839       O857   2.092       .  S
Fe839       O844   2.029       .  S
Fe839       O851   2.079       .  S
Fe839       O840   2.098       .  S
Fe839       O848   1.935       .  S
O840        C847   1.280       .  A
O841        C855   1.259       .  A
O842        C847   1.273       .  A
O843        C846   1.272       .  A
O844        C856   1.260       .  A
O845        C858   1.277       .  A
C846        O851   1.266       .  A
C847       C1022   1.468       .  S
O849        C852   1.271       .  A
O850        C852   1.273       .  A
O853        C858   1.274       .  A
O854        C856   1.275       .  A
C855        O857   1.281       .  A
C858        C880   1.474       .  S
Fe859       O875   2.065       .  S
Fe859       O865   2.084       .  S
Fe859       O872   2.071       .  S
Fe859       O864   2.049       .  S
Fe859       O870   1.928       .  S
Fe860       O863   2.001       .  S
Fe860       O867   2.100       .  S
Fe860       O871   2.069       .  S
Fe860       O876   2.123       .  S
Fe860       O870   1.968       .  S
Fe861       O879   2.092       .  S
Fe861       O866   2.030       .  S
Fe861       O873   2.079       .  S
Fe861       O862   2.099       .  S
Fe861       O870   1.936       .  S
O862        C869   1.280       .  A
O863        C877   1.259       .  A
O864        C869   1.273       .  A
O865        C868   1.272       .  A
O866        C878   1.260       .  A
O867        C880   1.277       .  A
C868        O873   1.266       .  A
C869       C1044   1.469       .  S
O871        C874   1.271       .  A
O872        C874   1.272       .  A
O875        C880   1.274       .  A
O876        C878   1.275       .  A
C877        O879   1.281       .  A
Fe881      O1249   2.065       .  S
Fe881      O1239   2.084       .  S
Fe881       O894   2.071       .  S
Fe881       O886   2.049       .  S
Fe881       O892   1.928       .  S
Fe882       O885   2.001       .  S
Fe882       O889   2.100       .  S
Fe882       O893   2.069       .  S
Fe882       O898   2.123       .  S
Fe882       O892   1.968       .  S
Fe883       O901   2.092       .  S
Fe883       O888   2.030       .  S
Fe883       O895   2.079       .  S
Fe883       O884   2.099       .  S
Fe883       O892   1.936       .  S
O884        C891   1.280       .  A
O885        C899   1.259       .  A
O886        C891   1.273       .  A
O887      Fe1233   2.084   1_545  S
O887        C890   1.272       .  A
O888        C900   1.260       .  A
O889        C902   1.277       .  A
C890       O1247   1.266   1_545  A
C890       C1031   1.480       .  S
O893        C896   1.271       .  A
O894        C896   1.272       .  A
O895       C1242   1.266       .  A
O897      Fe1233   2.065   1_545  S
O897       C1254   1.274   1_545  A
O898        C900   1.275       .  A
C899        O901   1.281       .  A
C899       C1054   1.442   1_554  S
C900       C1023   1.480       .  S
C902       O1249   1.274       .  A
C902       C1276   1.474   1_554  S
Fe903      O1271   2.065   1_545  S
Fe903      O1261   2.084   1_545  S
Fe903       O916   2.071       .  S
Fe903       O908   2.049       .  S
Fe903       O914   1.928       .  S
Fe904       O907   2.001       .  S
Fe904       O911   2.100       .  S
Fe904       O915   2.069       .  S
Fe904       O920   2.123       .  S
Fe904       O914   1.968       .  S
Fe905       O923   2.092       .  S
Fe905       O910   2.029       .  S
Fe905       O917   2.079       .  S
Fe905       O906   2.098       .  S
Fe905       O914   1.935       .  S
O906        C913   1.280       .  A
O907        C921   1.259       .  A
O908        C913   1.273       .  A
O909      Fe1255   2.084       .  S
O909        C912   1.272       .  A
O910        C922   1.260       .  A
O911        C924   1.277       .  A
C912       O1269   1.266       .  A
C912       C1053   1.480       .  S
O915        C918   1.271       .  A
O916        C918   1.273       .  A
O917       C1264   1.266   1_545  A
O919      Fe1255   2.065       .  S
O919       C1276   1.274       .  A
O920        C922   1.275       .  A
C921        O923   1.281       .  A
C921       C1032   1.442   1_556  S
C922       C1045   1.479       .  S
C924       O1271   1.274   1_545  A
C924       C1254   1.474   1_546  S
Fe925       O941   2.071       .  S
Fe925       O931   2.052       .  S
Fe925       O938   2.068       .  S
Fe925      O1282   2.084       .  S
Fe925       O936   1.928       .  S
Fe926       O929   2.124       .  S
Fe926       O933   2.069       .  S
Fe926       O937   2.101       .  S
Fe926       O942   2.002       .  S
Fe926       O936   1.969       .  S
Fe927       O945   2.029       .  S
Fe927       O932   2.090       .  S
Fe927       O939   2.095       .  S
Fe927       O928   2.078       .  S
Fe927       O936   1.935       .  S
O928       C1287   1.266       .  A
O929        C943   1.276       .  A
O930      Fe1277   2.084   1_545  S
O930        C935   1.272       .  A
O931        C934   1.274       .  A
O932        C944   1.281       .  A
O933        C946   1.270       .  A
C934        O939   1.279       .  A
C935       O1280   1.266   1_545  A
C935        C988   1.479       .  S
O937        C940   1.278       .  A
O938        C940   1.275       .  A
C940       C1314   1.475   1_554  S
O941        C946   1.272       .  A
O942        C944   1.259       .  A
C943        O945   1.259       .  A
C943        C978   1.479       .  S
C944       C1009   1.442   1_554  S
Fe947       O963   2.071       .  S
Fe947       O953   2.052       .  S
Fe947       O960   2.068   1_545  S
Fe947      O1304   2.084   1_545  S
Fe947       O958   1.928       .  S
Fe948       O951   2.124       .  S
Fe948       O955   2.069       .  S
Fe948       O959   2.101       .  S
Fe948       O964   2.002       .  S
Fe948       O958   1.969       .  S
Fe949       O967   2.029       .  S
Fe949       O954   2.090       .  S
Fe949       O961   2.096       .  S
Fe949       O950   2.079       .  S
Fe949       O958   1.935       .  S
O950       C1309   1.266   1_545  A
O951        C965   1.276       .  A
O952      Fe1299   2.084       .  S
O952        C957   1.272       .  A
O953        C956   1.274       .  A
O954        C966   1.281       .  A
O955        C968   1.270       .  A
C956        O961   1.279       .  A
C957       O1302   1.266       .  A
C957       C1010   1.480       .  S
O959        C962   1.278       .  A
O960        C962   1.275   1_565  A
C962       C1292   1.475   1_546  S
O963        C968   1.272       .  A
O964        C966   1.259       .  A
C965        O967   1.260       .  A
C965       C1000   1.480       .  S
C966        C987   1.442   1_556  S
Fe969       O985   2.065       .  S
Fe969       O975   2.084       .  S
Fe969       O982   2.071       .  S
Fe969       O974   2.049       .  S
Fe969       O980   1.928       .  S
Fe970       O973   2.001       .  S
Fe970       O977   2.100       .  S
Fe970       O981   2.069       .  S
Fe970       O986   2.122       .  S
Fe970       O980   1.968       .  S
Fe971       O989   2.092       .  S
Fe971       O976   2.029       .  S
Fe971       O983   2.079       .  S
Fe971       O972   2.098       .  S
Fe971       O980   1.935       .  S
O972        C979   1.280       .  A
O973        C987   1.259       .  A
O974        C979   1.273       .  A
O975        C978   1.272       .  A
O976        C988   1.260       .  A
O977        C990   1.277       .  A
C978        O983   1.266       .  A
O981        C984   1.271       .  A
O982        C984   1.273       .  A
C984       C1034   1.471       .  S
O985        C990   1.274       .  A
O986        C988   1.275       .  A
C987        O989   1.281       .  A
C990       C1012   1.474   1_554  S
Fe991      O1007   2.065       .  S
Fe991       O997   2.084       .  S
Fe991      O1004   2.071       .  S
Fe991       O996   2.049       .  S
Fe991      O1002   1.928       .  S
Fe992       O995   2.001       .  S
Fe992       O999   2.100       .  S
Fe992      O1003   2.069       .  S
Fe992      O1008   2.122       .  S
Fe992      O1002   1.968       .  S
Fe993      O1011   2.092       .  S
Fe993       O998   2.030       .  S
Fe993      O1005   2.079       .  S
Fe993       O994   2.099       .  S
Fe993      O1002   1.936       .  S
O994       C1001   1.280       .  A
O995       C1009   1.259       .  A
O996       C1001   1.273       .  A
O997       C1000   1.272       .  A
O998       C1010   1.260       .  A
O999       C1012   1.277       .  A
C1000      O1005   1.266       .  A
O1003      C1006   1.271       .  A
O1004      C1006   1.273       .  A
C1006      C1056   1.471       .  S
O1007      C1012   1.274       .  A
O1008      C1010   1.275       .  A
C1009      O1011   1.281       .  A
Fe1013     O1029   2.071       .  S
Fe1013     O1019   2.052       .  S
Fe1013     O1026   2.067       .  S
Fe1013     O1018   2.084       .  S
Fe1013     O1024   1.928       .  S
Fe1014     O1017   2.124       .  S
Fe1014     O1021   2.069       .  S
Fe1014     O1025   2.101       .  S
Fe1014     O1030   2.001       .  S
Fe1014     O1024   1.969       .  S
Fe1015     O1033   2.029       .  S
Fe1015     O1020   2.090       .  S
Fe1015     O1027   2.096       .  S
Fe1015     O1016   2.079       .  S
Fe1015     O1024   1.935       .  S
O1016      C1023   1.266       .  A
O1017      C1031   1.276       .  A
O1018      C1023   1.272       .  A
O1019      C1022   1.274       .  A
O1020      C1032   1.281       .  A
O1021      C1034   1.270       .  A
C1022      O1027   1.279       .  A
O1025      C1028   1.278       .  A
O1026      C1028   1.275       .  A
C1028      C1050   1.475   1_554  S
O1029      C1034   1.272       .  A
O1030      C1032   1.259       .  A
C1031      O1033   1.260       .  A
Fe1035     O1051   2.071       .  S
Fe1035     O1041   2.052       .  S
Fe1035     O1048   2.068       .  S
Fe1035     O1040   2.084       .  S
Fe1035     O1046   1.928       .  S
Fe1036     O1039   2.124       .  S
Fe1036     O1043   2.069       .  S
Fe1036     O1047   2.101       .  S
Fe1036     O1052   2.002       .  S
Fe1036     O1046   1.969       .  S
Fe1037     O1055   2.029       .  S
Fe1037     O1042   2.090       .  S
Fe1037     O1049   2.095       .  S
Fe1037     O1038   2.078       .  S
Fe1037     O1046   1.935       .  S
O1038      C1045   1.266       .  A
O1039      C1053   1.276       .  A
O1040      C1045   1.272       .  A
O1041      C1044   1.274       .  A
O1042      C1054   1.281       .  A
O1043      C1056   1.270       .  A
C1044      O1049   1.279       .  A
O1047      C1050   1.278       .  A
O1048      C1050   1.275       .  A
O1051      C1056   1.272       .  A
O1052      C1054   1.259       .  A
C1053      O1055   1.259       .  A
Fe1057     O1073   2.071       .  S
Fe1057     O1063   2.052       .  S
Fe1057     O1070   2.068   1_565  S
Fe1057     O1068   1.928       .  S
Fe1058     O1061   2.124       .  S
Fe1058     O1065   2.069       .  S
Fe1058     O1069   2.101       .  S
Fe1058     O1074   2.002       .  S
Fe1058     O1068   1.969       .  S
Fe1059     O1077   2.029       .  S
Fe1059     O1064   2.090       .  S
Fe1059     O1071   2.095       .  S
Fe1059     O1060   2.078       .  S
Fe1059     O1068   1.935       .  S
O1061      C1075   1.276       .  A
O1062      C1067   1.272       .  A
O1063      C1066   1.274       .  A
O1064      C1076   1.281       .  A
O1065      C1078   1.270       .  A
C1066      O1071   1.279       .  A
C1066      C1243   1.469       .  S
C1067      C1208   1.479       .  S
O1069      C1072   1.278       .  A
O1070      C1072   1.275   1_545  A
O1073      C1078   1.272       .  A
O1074      C1076   1.259       .  A
C1075      O1077   1.259       .  A
C1075      C1198   1.479       .  S
C1076      C1229   1.442       .  S
Fe1079     O1095   2.071       .  S
Fe1079     O1085   2.052       .  S
Fe1079     O1092   2.067       .  S
Fe1079     O1090   1.928       .  S
Fe1080     O1083   2.124       .  S
Fe1080     O1087   2.069       .  S
Fe1080     O1091   2.101       .  S
Fe1080     O1096   2.002       .  S
Fe1080     O1090   1.969       .  S
Fe1081     O1099   2.029       .  S
Fe1081     O1086   2.090       .  S
Fe1081     O1093   2.095       .  S
Fe1081     O1082   2.079       .  S
Fe1081     O1090   1.935       .  S
O1083      C1097   1.276       .  A
O1084      C1089   1.272       .  A
O1085      C1088   1.274       .  A
O1086      C1098   1.281       .  A
O1087      C1100   1.270       .  A
C1088      O1093   1.279       .  A
C1088      C1265   1.468       .  S
C1089      C1230   1.480       .  S
O1091      C1094   1.278       .  A
O1092      C1094   1.275       .  A
O1095      C1100   1.272       .  A
O1096      C1098   1.259       .  A
C1097      O1099   1.260       .  A
C1097      C1220   1.480       .  S
C1098      C1207   1.442       .  S
Fe1101     O1114   2.071       .  S
Fe1101     O1106   2.049       .  S
Fe1101     O1112   1.928       .  S
Fe1102     O1105   2.001       .  S
Fe1102     O1109   2.100       .  S
Fe1102     O1113   2.069       .  S
Fe1102     O1118   2.123       .  S
Fe1102     O1112   1.968       .  S
Fe1103     O1121   2.092       .  S
Fe1103     O1108   2.030       .  S
Fe1103     O1115   2.079       .  S
Fe1103     O1104   2.099       .  S
Fe1103     O1112   1.936       .  S
O1104      C1111   1.280       .  A
O1105      C1119   1.259       .  A
O1106      C1111   1.273       .  A
O1107      C1110   1.272       .  A
O1108      C1120   1.260       .  A
O1109      C1122   1.277       .  A
C1110      C1163   1.480       .  S
C1111      C1286   1.468       .  S
O1113      C1116   1.271       .  A
O1114      C1116   1.272       .  A
O1118      C1120   1.275       .  A
C1119      O1121   1.281       .  A
C1119      C1186   1.442       .  S
C1120      C1155   1.480       .  S
Fe1123     O1136   2.071       .  S
Fe1123     O1128   2.049       .  S
Fe1123     O1134   1.928       .  S
Fe1124     O1127   2.001       .  S
Fe1124     O1131   2.100       .  S
Fe1124     O1135   2.069       .  S
Fe1124     O1140   2.122       .  S
Fe1124     O1134   1.968       .  S
Fe1125     O1143   2.092       .  S
Fe1125     O1130   2.029       .  S
Fe1125     O1137   2.079       .  S
Fe1125     O1126   2.098       .  S
Fe1125     O1134   1.935       .  S
O1126      C1133   1.280       .  A
O1127      C1141   1.259       .  A
O1128      C1133   1.273       .  A
O1129      C1132   1.272       .  A
O1130      C1142   1.260       .  A
O1131      C1144   1.277       .  A
C1132      C1185   1.479       .  S
C1133      C1308   1.469       .  S
O1135      C1138   1.271       .  A
O1136      C1138   1.273       .  A
O1140      C1142   1.275       .  A
C1141      O1143   1.281       .  A
C1141      C1164   1.442       .  S
C1142      C1177   1.479       .  S
Fe1145     O1161   2.071       .  S
Fe1145     O1151   2.052       .  S
Fe1145     O1158   2.068       .  S
Fe1145     O1150   2.084       .  S
Fe1145     O1156   1.928       .  S
Fe1146     O1149   2.124       .  S
Fe1146     O1153   2.069       .  S
Fe1146     O1157   2.101       .  S
Fe1146     O1162   2.002       .  S
Fe1146     O1156   1.969       .  S
Fe1147     O1165   2.029       .  S
Fe1147     O1152   2.090       .  S
Fe1147     O1159   2.096       .  S
Fe1147     O1148   2.079       .  S
Fe1147     O1156   1.935       .  S
O1148      C1155   1.266       .  A
O1149      C1163   1.276       .  A
O1150      C1155   1.272       .  A
O1151      C1154   1.274       .  A
O1152      C1164   1.281       .  A
O1153      C1166   1.270       .  A
C1154      O1159   1.279       .  A
C1154      C1331   1.469       .  S
O1157      C1160   1.278       .  A
O1158      C1160   1.275       .  A
C1160      C1182   1.475       .  S
O1161      C1166   1.272       .  A
O1162      C1164   1.259       .  A
C1163      O1165   1.260       .  A
C1166      C1204   1.471       .  S
Fe1167     O1183   2.071       .  S
Fe1167     O1173   2.052       .  S
Fe1167     O1180   2.067       .  S
Fe1167     O1172   2.084       .  S
Fe1167     O1178   1.928       .  S
Fe1168     O1171   2.124       .  S
Fe1168     O1175   2.069       .  S
Fe1168     O1179   2.101       .  S
Fe1168     O1184   2.002       .  S
Fe1168     O1178   1.969       .  S
Fe1169     O1187   2.029       .  S
Fe1169     O1174   2.090       .  S
Fe1169     O1181   2.095       .  S
Fe1169     O1170   2.078       .  S
Fe1169     O1178   1.935       .  S
O1170      C1177   1.266       .  A
O1171      C1185   1.276       .  A
O1172      C1177   1.272       .  A
O1173      C1176   1.274       .  A
O1174      C1186   1.281       .  A
O1175      C1188   1.270       .  A
C1176      O1181   1.279       .  A
C1176      C1353   1.468       .  S
O1179      C1182   1.278       .  A
O1180      C1182   1.275       .  A
O1183      C1188   1.272       .  A
O1184      C1186   1.259       .  A
C1185      O1187   1.259       .  A
C1188      C1226   1.471       .  S
Fe1189     O1205   2.065       .  S
Fe1189     O1195   2.084       .  S
Fe1189     O1202   2.071       .  S
Fe1189     O1194   2.049       .  S
Fe1189     O1200   1.928       .  S
Fe1190     O1193   2.001       .  S
Fe1190     O1197   2.100       .  S
Fe1190     O1201   2.069       .  S
Fe1190     O1206   2.123       .  S
Fe1190     O1200   1.968       .  S
Fe1191     O1209   2.092       .  S
Fe1191     O1196   2.029       .  S
Fe1191     O1203   2.079       .  S
Fe1191     O1192   2.098       .  S
Fe1191     O1200   1.935       .  S
O1192      C1199   1.280       .  A
O1193      C1207   1.259       .  A
O1194      C1199   1.273       .  A
O1195      C1198   1.272       .  A
O1196      C1208   1.260       .  A
O1197      C1210   1.277       .  A
C1198      O1203   1.266       .  A
C1199      C1374   1.468       .  S
O1201      C1204   1.271       .  A
O1202      C1204   1.273       .  A
O1205      C1210   1.274       .  A
O1206      C1208   1.275       .  A
C1207      O1209   1.281       .  A
C1210      C1232   1.474       .  S
Fe1211     O1227   2.065       .  S
Fe1211     O1217   2.084       .  S
Fe1211     O1224   2.071       .  S
Fe1211     O1216   2.049       .  S
Fe1211     O1222   1.928       .  S
Fe1212     O1215   2.001       .  S
Fe1212     O1219   2.100       .  S
Fe1212     O1223   2.069       .  S
Fe1212     O1228   2.123       .  S
Fe1212     O1222   1.968       .  S
Fe1213     O1231   2.092       .  S
Fe1213     O1218   2.030       .  S
Fe1213     O1225   2.079       .  S
Fe1213     O1214   2.099       .  S
Fe1213     O1222   1.936       .  S
O1214      C1221   1.280       .  A
O1215      C1229   1.259       .  A
O1216      C1221   1.273       .  A
O1217      C1220   1.272       .  A
O1218      C1230   1.260       .  A
O1219      C1232   1.277       .  A
C1220      O1225   1.266       .  A
C1221      C1396   1.469       .  S
O1223      C1226   1.271       .  A
O1224      C1226   1.272       .  A
O1227      C1232   1.274       .  A
O1228      C1230   1.275       .  A
C1229      O1231   1.281       .  A
Fe1233     O1246   2.071       .  S
Fe1233     O1238   2.049       .  S
Fe1233     O1244   1.928       .  S
Fe1234     O1237   2.001       .  S
Fe1234     O1241   2.100       .  S
Fe1234     O1245   2.069       .  S
Fe1234     O1250   2.123       .  S
Fe1234     O1244   1.968       .  S
Fe1235     O1253   2.092       .  S
Fe1235     O1240   2.030       .  S
Fe1235     O1247   2.079       .  S
Fe1235     O1236   2.099       .  S
Fe1235     O1244   1.936       .  S
O1236      C1243   1.280       .  A
O1237      C1251   1.259       .  A
O1238      C1243   1.273       .  A
O1239      C1242   1.272       .  A
O1240      C1252   1.260       .  A
O1241      C1254   1.277       .  A
C1242      C1383   1.480       .  S
O1245      C1248   1.271       .  A
O1246      C1248   1.272       .  A
O1250      C1252   1.275       .  A
C1251      O1253   1.281       .  A
C1251      C1406   1.442   1_554  S
C1252      C1375   1.480       .  S
Fe1255     O1268   2.071       .  S
Fe1255     O1260   2.049       .  S
Fe1255     O1266   1.928       .  S
Fe1256     O1259   2.001       .  S
Fe1256     O1263   2.100       .  S
Fe1256     O1267   2.069       .  S
Fe1256     O1272   2.123       .  S
Fe1256     O1266   1.968       .  S
Fe1257     O1275   2.092       .  S
Fe1257     O1262   2.029       .  S
Fe1257     O1269   2.079       .  S
Fe1257     O1258   2.098       .  S
Fe1257     O1266   1.935       .  S
O1258      C1265   1.280       .  A
O1259      C1273   1.259       .  A
O1260      C1265   1.273       .  A
O1261      C1264   1.272       .  A
O1262      C1274   1.260       .  A
O1263      C1276   1.277       .  A
C1264      C1405   1.480       .  S
O1267      C1270   1.271       .  A
O1268      C1270   1.273       .  A
O1272      C1274   1.275       .  A
C1273      O1275   1.281       .  A
C1273      C1384   1.442   1_556  S
C1274      C1397   1.479       .  S
Fe1277     O1293   2.071       .  S
Fe1277     O1283   2.052       .  S
Fe1277     O1290   2.068   1_565  S
Fe1277     O1288   1.927       .  S
Fe1278     O1281   2.124       .  S
Fe1278     O1285   2.069       .  S
Fe1278     O1289   2.101       .  S
Fe1278     O1294   2.002       .  S
Fe1278     O1288   1.969       .  S
Fe1279     O1297   2.029       .  S
Fe1279     O1284   2.090       .  S
Fe1279     O1291   2.095       .  S
Fe1279     O1280   2.078       .  S
Fe1279     O1288   1.935       .  S
O1281      C1295   1.276       .  A
O1282      C1287   1.272       .  A
O1283      C1286   1.274       .  A
O1284      C1296   1.281       .  A
O1285      C1298   1.270       .  A
C1286      O1291   1.279       .  A
C1287      C1340   1.479       .  S
O1289      C1292   1.278       .  A
O1290      C1292   1.275   1_545  A
O1293      C1298   1.272       .  A
O1294      C1296   1.259       .  A
C1295      O1297   1.259       .  A
C1295      C1330   1.479       .  S
C1296      C1361   1.442   1_554  S
Fe1299     O1315   2.071       .  S
Fe1299     O1305   2.052       .  S
Fe1299     O1312   2.068       .  S
Fe1299     O1310   1.928       .  S
Fe1300     O1303   2.124       .  S
Fe1300     O1307   2.069       .  S
Fe1300     O1311   2.101       .  S
Fe1300     O1316   2.002       .  S
Fe1300     O1310   1.969       .  S
Fe1301     O1319   2.029       .  S
Fe1301     O1306   2.090       .  S
Fe1301     O1313   2.096       .  S
Fe1301     O1302   2.079       .  S
Fe1301     O1310   1.935       .  S
O1303      C1317   1.276       .  A
O1304      C1309   1.272       .  A
O1305      C1308   1.274       .  A
O1306      C1318   1.281       .  A
O1307      C1320   1.270       .  A
C1308      O1313   1.279       .  A
C1309      C1362   1.480       .  S
O1311      C1314   1.278       .  A
O1312      C1314   1.275       .  A
O1315      C1320   1.272       .  A
O1316      C1318   1.259       .  A
C1317      O1319   1.260       .  A
C1317      C1352   1.480       .  S
C1318      C1339   1.442   1_556  S
Fe1321     O1337   2.065       .  S
Fe1321     O1327   2.084       .  S
Fe1321     O1334   2.071       .  S
Fe1321     O1326   2.049       .  S
Fe1321     O1332   1.928       .  S
Fe1322     O1325   2.001       .  S
Fe1322     O1329   2.100       .  S
Fe1322     O1333   2.069       .  S
Fe1322     O1338   2.122       .  S
Fe1322     O1332   1.968       .  S
Fe1323     O1341   2.092       .  S
Fe1323     O1328   2.029       .  S
Fe1323     O1335   2.079       .  S
Fe1323     O1324   2.098       .  S
Fe1323     O1332   1.935       .  S
O1324      C1331   1.280       .  A
O1325      C1339   1.259       .  A
O1326      C1331   1.273       .  A
O1327      C1330   1.272       .  A
O1328      C1340   1.260       .  A
O1329      C1342   1.277       .  A
C1330      O1335   1.266       .  A
O1333      C1336   1.271       .  A
O1334      C1336   1.273       .  A
C1336      C1386   1.471       .  S
O1337      C1342   1.274       .  A
O1338      C1340   1.275       .  A
C1339      O1341   1.281       .  A
C1342      C1364   1.474   1_554  S
Fe1343     O1359   2.065       .  S
Fe1343     O1349   2.084       .  S
Fe1343     O1356   2.071       .  S
Fe1343     O1348   2.049       .  S
Fe1343     O1354   1.928       .  S
Fe1344     O1347   2.001       .  S
Fe1344     O1351   2.100       .  S
Fe1344     O1355   2.069       .  S
Fe1344     O1360   2.122       .  S
Fe1344     O1354   1.968       .  S
Fe1345     O1363   2.092       .  S
Fe1345     O1350   2.030       .  S
Fe1345     O1357   2.079       .  S
Fe1345     O1346   2.099       .  S
Fe1345     O1354   1.936       .  S
O1346      C1353   1.280       .  A
O1347      C1361   1.259       .  A
O1348      C1353   1.273       .  A
O1349      C1352   1.272       .  A
O1350      C1362   1.260       .  A
O1351      C1364   1.277       .  A
C1352      O1357   1.266       .  A
O1355      C1358   1.271       .  A
O1356      C1358   1.273       .  A
C1358      C1408   1.471       .  S
O1359      C1364   1.274       .  A
O1360      C1362   1.275       .  A
C1361      O1363   1.281       .  A
Fe1365     O1381   2.071       .  S
Fe1365     O1371   2.052       .  S
Fe1365     O1378   2.067       .  S
Fe1365     O1370   2.084       .  S
Fe1365     O1376   1.928       .  S
Fe1366     O1369   2.124       .  S
Fe1366     O1373   2.069       .  S
Fe1366     O1377   2.101       .  S
Fe1366     O1382   2.001       .  S
Fe1366     O1376   1.969       .  S
Fe1367     O1385   2.029       .  S
Fe1367     O1372   2.090       .  S
Fe1367     O1379   2.096       .  S
Fe1367     O1368   2.079       .  S
Fe1367     O1376   1.935       .  S
O1368      C1375   1.266       .  A
O1369      C1383   1.276       .  A
O1370      C1375   1.272       .  A
O1371      C1374   1.274       .  A
O1372      C1384   1.281       .  A
O1373      C1386   1.270       .  A
C1374      O1379   1.279       .  A
O1377      C1380   1.278       .  A
O1378      C1380   1.275       .  A
C1380      C1402   1.475   1_554  S
O1381      C1386   1.272       .  A
O1382      C1384   1.259       .  A
C1383      O1385   1.260       .  A
Fe1387     O1403   2.071       .  S
Fe1387     O1393   2.052       .  S
Fe1387     O1400   2.068       .  S
Fe1387     O1392   2.084       .  S
Fe1387     O1398   1.928       .  S
Fe1388     O1391   2.124       .  S
Fe1388     O1395   2.069       .  S
Fe1388     O1399   2.101       .  S
Fe1388     O1404   2.002       .  S
Fe1388     O1398   1.969       .  S
Fe1389     O1407   2.029       .  S
Fe1389     O1394   2.090       .  S
Fe1389     O1401   2.095       .  S
Fe1389     O1390   2.078       .  S
Fe1389     O1398   1.935       .  S
O1390      C1397   1.266       .  A
O1391      C1405   1.276       .  A
O1392      C1397   1.272       .  A
O1393      C1396   1.274       .  A
O1394      C1406   1.281       .  A
O1395      C1408   1.270       .  A
C1396      O1401   1.279       .  A
O1399      C1402   1.278       .  A
O1400      C1402   1.275       .  A
O1403      C1408   1.272       .  A
O1404      C1406   1.259       .  A
C1405      O1407   1.259       .  A
