geometry optimzed in LAMMPS
_audit_creation_date              2020-12-01 
_audit_creation_method            'lammps2cif' 
_symmetry_space_group_name_H-M    'P1' 
_symmetry_Int_Tables_number       1 
_symmetry_cell_setting            triclinic 
loop_ 
_symmetry_equiv_pos_as_xyz 
  x,y,z 
_cell_length_a                    34.45191501 
_cell_length_b                    51.55454516956187 
_cell_length_c                    34.35452101425602 
_cell_angle_alpha                 89.99522652759372 
_cell_angle_beta                  109.03306601888882 
_cell_angle_gamma                 90.21840323154717 
loop_ 
_atom_site_label 
_atom_site_type_symbol 
_atom_site_fract_x 
_atom_site_fract_y 
_atom_site_fract_z 
_atom_site_charge 
Fe1        Fe  0.63669734  0.83595159  0.26522149     1.65800
Fe2        Fe  0.69829622  0.83967300  0.20503334     1.73200
Fe3        Fe  0.68509695  0.78123783  0.24713290     1.54400
O4          O  0.69499547  0.78340240  0.30977742    -0.82000
O5          O  0.68712899  0.81208717  0.15998372    -0.80300
O6          O  0.66735614  0.82007966  0.32322735    -0.84500
O7          O  0.59528181  0.80595517  0.25220468    -0.79300
O8          O  0.74757484  0.78644461  0.25812235    -0.81100
O9          O  0.64267995  0.85564653  0.17152516    -0.83900
C10         C  0.59365788  0.78240758  0.24143861     0.96900
C11         C  0.68642796  0.79874943  0.33480485     1.04300
O12         O  0.67362376  0.81892549  0.23942667    -1.12800
O13         O  0.71341599  0.87073847  0.24451304    -0.75300
O14         O  0.67180774  0.86947469  0.28197619    -0.78800
O15         O  0.62416360  0.77066866  0.23673105    -0.79400
C16         C  0.69961089  0.88050301  0.27108846     0.95800
O17         O  0.60109757  0.85193719  0.20917056    -0.77400
O18         O  0.75640020  0.82527740  0.23346421    -0.82600
C19         C  0.67997902  0.78798874  0.15629953     0.98400
C20         C  0.77037882  0.80387269  0.25050872     1.04400
O21         O  0.67674218  0.77400474  0.18550866    -0.78200
C22         C  0.60758148  0.85777467  0.17576090     1.02700
Fe23       Fe  0.30584606  0.83208191  0.74634826     1.65800
Fe24       Fe  0.24691111  0.83951394  0.80857166     1.73200
Fe25       Fe  0.25484129  0.77989356  0.76793897     1.54400
O26         O  0.24656844  0.78070427  0.70560619    -0.82000
O27         O  0.25777571  0.81307320  0.85531641    -0.80300
O28         O  0.27030209  0.81786981  0.68836827    -0.84500
O29         O  0.34215815  0.79989042  0.75482304    -0.79300
O30         O  0.19276490  0.78722253  0.75487446    -0.81100
O31         O  0.30422519  0.85491359  0.83950318    -0.83900
C32         C  0.34414615  0.77732106  0.76973323     0.96900
C33         C  0.25218682  0.79594567  0.67877077     1.04300
O34         O  0.26882166  0.81717299  0.77403189    -1.12800
O35         O  0.23208779  0.86962491  0.76736138    -0.75300
O36         O  0.27623253  0.86756980  0.73286298    -0.78800
O37         O  0.31538166  0.76782632  0.78090214    -0.79400
C38         C  0.24819287  0.87917766  0.74235547     0.95800
O39         O  0.34527603  0.84570736  0.80274148    -0.77400
O40         O  0.18766579  0.82575211  0.78253533    -0.82600
C41         C  0.26042151  0.78866899  0.85869725     0.98400
C42         C  0.17169125  0.80503484  0.76400386     1.04400
O43         O  0.26062540  0.77399400  0.82913924    -0.78200
C44         C  0.33964171  0.85383284  0.83558333     1.02700
Fe45       Fe  0.80798078  0.66067589  0.75109200     1.65800
Fe46       Fe  0.74708295  0.65460305  0.81170515     1.73200
Fe47       Fe  0.75743072  0.71390306  0.77030441     1.54400
O48         O  0.81810323  0.72557373  0.78308214    -0.82000
O49         O  0.68853545  0.66951420  0.78604170    -0.80300
O50         O  0.84780000  0.69154015  0.76479178    -0.84500
O51         O  0.77642024  0.67654545  0.69343156    -0.79300
O52         O  0.76347661  0.72007625  0.83174829    -0.81100
O53         O  0.73097091  0.62457520  0.76981318    -0.83900
C54         C  0.75760501  0.69797907  0.68239738     0.96900
C55         C  0.84880298  0.71468548  0.77738404     1.04300
O56         O  0.77058251  0.67641030  0.77746768    -1.12800
O57         O  0.80288520  0.63773642  0.84308021    -0.75300
O58         O  0.84459502  0.64439945  0.80633932    -0.78800
O59         O  0.74939422  0.71308460  0.70789865    -0.79400
C60         C  0.83811191  0.63662761  0.83886160     0.95800
O61         O  0.77416778  0.62673786  0.73399729    -0.77400
O62         O  0.76009341  0.68116461  0.85854025    -0.82600
C63         C  0.67337179  0.68999638  0.76644145     0.98400
C64         C  0.76386417  0.70556119  0.86174703     1.04400
O65         O  0.69519147  0.70713348  0.75667231    -0.78200
C66         C  0.74588726  0.61529565  0.74361610     1.02700
Fe67       Fe  0.13306917  0.65839498  0.26393809     1.65800
Fe68       Fe  0.19730576  0.65009083  0.20730797     1.73200
Fe69       Fe  0.18328158  0.71051289  0.24076992     1.54400
O70         O  0.12392238  0.72245699  0.23459856    -0.82000
O71         O  0.25591077  0.66284777  0.23978726    -0.80300
O72         O  0.09069964  0.68713086  0.24327430    -0.84500
O73         O  0.16126966  0.67872692  0.31948971    -0.79300
O74         O  0.16950560  0.71418356  0.17784450    -0.81100
O75         O  0.20537217  0.61906021  0.24705063    -0.83900
C76         C  0.18542883  0.69837148  0.32960034     0.96900
C77         C  0.09158308  0.71101217  0.23550413     1.04300
O78         O  0.17137517  0.67295650  0.23774438    -1.12800
O79         O  0.14104043  0.63618355  0.17119084    -0.75300
O80         O  0.10018259  0.63831996  0.20997491    -0.78800
O81         O  0.19806261  0.71050506  0.30377032    -0.79400
C82         C  0.10637667  0.63297744  0.17613709     0.95800
O83         O  0.16885604  0.62646697  0.28839287    -0.77400
O84         O  0.19301122  0.67691215  0.16185439    -0.82600
C85         C  0.26875270  0.68601900  0.24790312     0.98400
C86         C  0.17968630  0.69975744  0.15287330     1.04400
O87         O  0.24467661  0.70477077  0.24739855    -0.78200
C88         C  0.19291105  0.61241181  0.27645342     1.02700
Fe89       Fe  0.64586731  0.16139910  0.26950752     1.65800
Fe90       Fe  0.70854722  0.15684608  0.21080439     1.73200
Fe91       Fe  0.69807514  0.21495817  0.25414064     1.54400
O92         O  0.63839199  0.22694364  0.24754295    -0.82000
O93         O  0.76791060  0.16722143  0.24502342    -0.80300
O94         O  0.60471049  0.19097650  0.25262609    -0.84500
O95         O  0.67418910  0.17835327  0.32728990    -0.79300
O96         O  0.68632317  0.22275663  0.19234175    -0.81100
O97         O  0.71427943  0.12322758  0.24495204    -0.83900
C98         C  0.69839487  0.19758214  0.34049265     0.96900
C99         C  0.60573085  0.21513492  0.24686970     1.04300
O100        O  0.68434950  0.17772353  0.24516852    -1.12800
O101        O  0.65124135  0.14565466  0.17290131    -0.75300
O102        O  0.61237408  0.14384067  0.21369532    -0.78800
O103        O  0.71133568  0.21160143  0.31684496    -0.79400
C104        C  0.61728247  0.14101535  0.17868740     0.95800
O105        O  0.68112474  0.12884809  0.28977865    -0.77400
O106        O  0.70666901  0.18643783  0.17028857    -0.82600
C107        C  0.78239076  0.18941711  0.25857551     0.98400
C108        C  0.69582307  0.20996945  0.16525685     1.04400
O109        O  0.75968833  0.20822497  0.26182371    -0.78200
C110        C  0.70300946  0.11521080  0.27446542     1.02700
Fe111      Fe  0.31736280  0.15869150  0.75352722     1.65800
Fe112      Fe  0.25114888  0.15358992  0.80838805     1.73200
Fe113      Fe  0.26632664  0.21234552  0.76961210     1.54400
O114        O  0.32689688  0.22375104  0.77829516    -0.82000
O115        O  0.19320339  0.16513275  0.77254817    -0.80300
O116        O  0.35971946  0.18766762  0.77290645    -0.84500
O117        O  0.29157010  0.17675275  0.69637918    -0.79300
O118        O  0.27672231  0.21879469  0.83151136    -0.81100
O119        O  0.24490230  0.12065288  0.77244696    -0.83900
C120        C  0.26834497  0.19634880  0.68350764     0.96900
C121        C  0.35939189  0.21176504  0.77934748     1.04300
O122        O  0.27813115  0.17487233  0.77682511    -1.12800
O123        O  0.30704354  0.14125666  0.84763239    -0.75300
O124        O  0.34823216  0.14028690  0.80912321    -0.78800
O125        O  0.25478499  0.21001003  0.70703987    -0.79400
C126        C  0.34169553  0.13695312  0.84328080     0.95800
O127        O  0.28133179  0.12662303  0.73063658    -0.77400
O128        O  0.25278005  0.18245963  0.85022614    -0.82600
C129        C  0.18004069  0.18787016  0.76133099     0.98400
C130        C  0.26505807  0.20573308  0.85700180     1.04400
O131        O  0.20397289  0.20660457  0.76028150    -0.78200
C132        C  0.25747553  0.11300964  0.74361703     1.02700
Fe133      Fe  0.81992815  0.33660276  0.75659794     1.65800
Fe134      Fe  0.74950858  0.34164964  0.80663647     1.73200
Fe135      Fe  0.76867495  0.28258270  0.77225525     1.54400
O136        O  0.75794580  0.28461435  0.70970949    -0.82000
O137        O  0.75180460  0.31353164  0.84972964    -0.80300
O138        O  0.79372403  0.31875808  0.69884748    -0.84500
O139        O  0.86179423  0.30739864  0.77496571    -0.79300
O140        O  0.70616355  0.28694020  0.76263572    -0.81100
O141        O  0.80374701  0.35589731  0.84643776    -0.83900
C142        C  0.86139922  0.28329973  0.78125357     0.96900
C143        C  0.77114946  0.29863561  0.68611184     1.04300
O144        O  0.77928081  0.32031612  0.77807929    -1.12800
O145        O  0.74224829  0.37371241  0.76906965    -0.75300
O146        O  0.78579690  0.36954694  0.73430045    -0.78800
O147        O  0.82909267  0.27139260  0.78117432    -0.79400
C148        C  0.75850651  0.38218797  0.74343653     0.95800
O149        O  0.85013399  0.35406711  0.81370293    -0.77400
O150        O  0.69279773  0.32850339  0.77011970    -0.82600
C151        C  0.76599975  0.29086021  0.85869883     0.98400
C152        C  0.68106813  0.30520121  0.76162161     1.04400
O153        O  0.77895712  0.27740818  0.83452660    -0.78200
C154        C  0.84009677  0.35897461  0.84562897     1.02700
Fe155      Fe  0.14381109  0.33331048  0.26748784     1.65800
Fe156      Fe  0.21164590  0.34010727  0.21424901     1.73200
Fe157      Fe  0.19956829  0.28092482  0.25397237     1.54400
O158        O  0.20813249  0.28368518  0.31608323    -0.82000
O159        O  0.20609366  0.31247192  0.16971302    -0.80300
O160        O  0.17278752  0.31796826  0.32615073    -0.84500
O161        O  0.10501879  0.30175610  0.25279544    -0.79300
O162        O  0.26184414  0.28769178  0.26618899    -0.81100
O163        O  0.15627228  0.35474859  0.17771240    -0.83900
C164        C  0.10714728  0.27789565  0.24504624     0.96900
C165        C  0.19559640  0.29821630  0.33943790     1.04300
O166        O  0.18510385  0.31809870  0.24546600    -1.12800
O167        O  0.22142849  0.37092894  0.25398835    -0.75300
O168        O  0.17544451  0.36799762  0.28633475    -0.78800
O169        O  0.13986653  0.26774077  0.24291817    -0.79400
C170        C  0.20434050  0.37992999  0.27852424     0.95800
O171        O  0.11037045  0.34878172  0.21011031    -0.77400
O172        O  0.27010546  0.32779808  0.24625621    -0.82600
C173        C  0.19827267  0.28842134  0.16481479     0.98400
C174        C  0.28456132  0.30614485  0.26163016     1.04400
O175        O  0.19233999  0.27430645  0.19266217    -0.78200
C176        C  0.11983559  0.35590727  0.17878603     1.02700
C177        C  0.87196225  0.36707548  0.88475570    -0.03500
C178        C  0.86001923  0.37601095  0.91786757    -0.06100
C179        C  0.88885604  0.37935529  0.95702517    -0.21200
C180        C  0.93052541  0.37400975  0.96436905     0.24500
C181        C  0.94293041  0.36609153  0.93090944    -0.18700
C182        C  0.91394322  0.36276068  0.89152493    -0.08700
C183        C  0.95889869  0.37468723  0.00783681    -0.19000
C184        C  0.00017341  0.37566910  0.01868150    -0.23800
C185        C  0.02848569  0.37368895  0.06204930     0.26600
C186        C  0.06944837  0.38159775  0.07072805    -0.20600
C187        C  0.09846590  0.37721363  0.10945420    -0.10200
C188        C  0.08738033  0.36465960  0.14069248    -0.10700
C189        C  0.04598209  0.35782312  0.13280163    -0.03700
C190        C  0.01685428  0.36215416  0.09386359    -0.18800
H191        H  0.82799523  0.37952763  0.91393969     0.10300
H192        H  0.87829138  0.38542455  0.98204765     0.10400
H193        H  0.97453444  0.36118938  0.93522739     0.10000
H194        H  0.92415094  0.35548907  0.86692917     0.11100
H195        H  0.94479550  0.37445289  0.03183757     0.11200
H196        H  0.01424797  0.37811830  0.99488724     0.13100
H197        H  0.07938587  0.39051644  0.04699518     0.09700
H198        H  0.13003813  0.38284417  0.11442739     0.11700
H199        H  0.03650574  0.34784009  0.15596844     0.08400
H200        H  0.98588577  0.35521746  0.08840833     0.11100
C201        C  0.20682370  0.29064729  0.38354586    -0.03500
C202        C  0.18662846  0.30133685  0.40931266    -0.06100
C203        C  0.19383584  0.29161249  0.44918021    -0.21200
C204        C  0.22109426  0.27090093  0.46411656     0.24500
C205        C  0.24269081  0.26103255  0.43901703    -0.18700
C206        C  0.23553207  0.27072625  0.39928026    -0.08700
C207        C  0.22649845  0.26039237  0.50603188    -0.19000
C208        C  0.23976978  0.23609855  0.51815347    -0.23800
C209        C  0.24483208  0.22538179  0.55991600     0.26600
C210        C  0.27023121  0.20368949  0.57383584    -0.20600
C211        C  0.27685400  0.19352575  0.61335229    -0.10200
C212        C  0.25791499  0.20474603  0.63981704    -0.10700
C213        C  0.23118205  0.22578813  0.62517879    -0.03700
C214        C  0.22460625  0.23591920  0.58580520    -0.18800
H215        H  0.16429584  0.31663423  0.39825251     0.10300
H216        H  0.17718266  0.29985004  0.46804640     0.10400
H217        H  0.26521414  0.24585842  0.44980237     0.10000
H218        H  0.25209313  0.26221290  0.38055795     0.11100
H219        H  0.21829490  0.27319053  0.52712403     0.11200
H220        H  0.24781376  0.22334751  0.49687634     0.13100
H221        H  0.28579803  0.19491747  0.55438761     0.09700
H222        H  0.29764141  0.17734464  0.62352814     0.11700
H223        H  0.21568623  0.23481860  0.64445878     0.08400
H224        H  0.20350157  0.25191333  0.57596312     0.11100
C225        C  0.26370776  0.21800856  0.89541177    -0.03500
C226        C  0.26272916  0.24511283  0.89903056    -0.06100
C227        C  0.25580936  0.25639426  0.93320255    -0.21200
C228        C  0.24953989  0.24081808  0.96416732     0.24500
C229        C  0.25272010  0.21375072  0.96157859    -0.18700
C230        C  0.25952307  0.20249371  0.92747909    -0.08700
C231        C  0.24010192  0.25340475  0.99880861    -0.19000
C232        C  0.21836781  0.24164198  0.02012072    -0.23800
C233        C  0.20953120  0.25407171  0.05521623     0.26600
C234        C  0.20331011  0.23832075  0.08600680    -0.20600
C235        C  0.19782630  0.24938938  0.12099989    -0.10200
C236        C  0.19813832  0.27647449  0.12561665    -0.10700
C237        C  0.20192799  0.29219998  0.09357733    -0.03700
C238        C  0.20742012  0.28114680  0.05871161    -0.18800
H239        H  0.26575414  0.25756009  0.87477440     0.10300
H240        H  0.25408355  0.27732072  0.93484413     0.10400
H241        H  0.24992702  0.20115157  0.98571534     0.10000
H242        H  0.26078094  0.18154664  0.92589060     0.11100
H243        H  0.25087963  0.27316810  0.00625472     0.11200
H244        H  0.20759760  0.22187774  0.01261652     0.13100
H245        H  0.20414034  0.21739092  0.08365786     0.09700
H246        H  0.19482089  0.23673781  0.14503165     0.11700
H247        H  0.20161115  0.31314719  0.09580593     0.08400
H248        H  0.21017680  0.29391945  0.03476353     0.11100
C249        C  0.63716398  0.29858394  0.75390804    -0.03500
C250        C  0.60824659  0.31800600  0.75300920    -0.06100
C251        C  0.56899397  0.31141181  0.75380462    -0.21200
C252        C  0.55814648  0.28535591  0.75626792     0.24500
C253        C  0.58607517  0.26592309  0.75450454    -0.18700
C254        C  0.62504832  0.27246047  0.75327318    -0.08700
C255        C  0.51773528  0.27874152  0.76074263    -0.19000
C256        C  0.51327913  0.25828532  0.78340352    -0.23800
C257        C  0.47352967  0.24865180  0.78639342     0.26600
C258        C  0.47259170  0.22335011  0.80105643    -0.20600
C259        C  0.43573935  0.21205170  0.80091387    -0.10200
C260        C  0.39869625  0.22585699  0.78651471    -0.10700
C261        C  0.39975542  0.25180648  0.77434660    -0.03700
C262        C  0.43686304  0.26313214  0.77413170    -0.18800
H263        H  0.61645891  0.33831723  0.75335172     0.10300
H264        H  0.54771011  0.32671539  0.75432843     0.10400
H265        H  0.57807221  0.24560698  0.75463082     0.10000
H266        H  0.64632290  0.25696140  0.75372473     0.11100
H267        H  0.49185253  0.29110589  0.74552420     0.11200
H268        H  0.54034503  0.24695690  0.79932539     0.13100
H269        H  0.50031275  0.21181186  0.81117663     0.09700
H270        H  0.43604994  0.19207999  0.81083691     0.11700
H271        H  0.37166466  0.26289076  0.76307266     0.08400
H272        H  0.43639298  0.28293177  0.76367111     0.11100
C273        C  0.13560115  0.19337453  0.75245089    -0.03500
C274        C  0.10885892  0.17419614  0.75843408    -0.06100
C275        C  0.06934013  0.18071232  0.75831573    -0.21200
C276        C  0.05594994  0.20652868  0.75278175     0.24500
C277        C  0.08141690  0.22531178  0.74361846    -0.18700
C278        C  0.12074514  0.21881425  0.74348108    -0.08700
C279        C  0.01605093  0.21367959  0.75796351    -0.19000
C280        C  0.01140408  0.23640298  0.77538479    -0.23800
C281        C  0.97282293  0.24601518  0.78115892     0.26600
C282        C  0.97320542  0.27138234  0.79608602    -0.20600
C283        C  0.93745889  0.28275579  0.79859232    -0.10200
C284        C  0.90011319  0.26903283  0.78648286    -0.10700
C285        C  0.89993132  0.24304135  0.77397761    -0.03700
C286        C  0.93593824  0.23160931  0.77116528    -0.18800
H287        H  0.11911638  0.15437823  0.76521141     0.10300
H288        H  0.05000779  0.16579670  0.76468312     0.10400
H289        H  0.07135369  0.24520638  0.73747949     0.10000
H290        H  0.14017816  0.23404710  0.73820254     0.11100
H291        H  0.99135490  0.19953215  0.74911854     0.11200
H292        H  0.03786047  0.24927038  0.78584448     0.13100
H293        H  0.00109241  0.28292085  0.80449412     0.09700
H294        H  0.93876636  0.30275534  0.80861422     0.11700
H295        H  0.87154429  0.23202427  0.76424732     0.08400
H296        H  0.93424069  0.21188364  0.76013186     0.11100
C297        C  0.76109370  0.28994805  0.64248060    -0.03500
C298        C  0.77794531  0.30233945  0.61518965    -0.06100
C299        C  0.77167016  0.29215345  0.57569846    -0.21200
C300        C  0.74881154  0.26922975  0.56261305     0.24500
C301        C  0.73081305  0.25733526  0.58941349    -0.18700
C302        C  0.73692500  0.26753428  0.62871849    -0.08700
C303        C  0.74360882  0.25883593  0.52057306    -0.19000
C304        C  0.73329905  0.23398302  0.50881000    -0.23800
C305        C  0.72719394  0.22392705  0.46638581     0.26600
C306        C  0.70323596  0.20147619  0.45279607    -0.20600
C307        C  0.69493890  0.19222342  0.41245214    -0.10200
C308        C  0.71082626  0.20509206  0.38481231    -0.10700
C309        C  0.73651196  0.22679020  0.39916324    -0.03700
C310        C  0.74466946  0.23604648  0.43933181    -0.18800
H311        H  0.79673776  0.31957027  0.62462527     0.10300
H312        H  0.78546974  0.30196284  0.55554863     0.10400
H313        H  0.71170945  0.24025412  0.58025878     0.10000
H314        H  0.72312372  0.25748413  0.64863145     0.11100
H315        H  0.74881494  0.27243868  0.49869896     0.11200
H316        H  0.72800883  0.22036459  0.53062702     0.13100
H317        H  0.68988231  0.19145947  0.47312604     0.09700
H318        H  0.67520596  0.17542287  0.40262561     0.11700
H319        H  0.74977681  0.23708022  0.37903146     0.08400
H320        H  0.76469856  0.25269346  0.44885194     0.11100
C321        C  0.69638263  0.22274825  0.12690691    -0.03500
C322        C  0.69653266  0.24990716  0.12344813    -0.06100
C323        C  0.70344115  0.26155622  0.08944465    -0.21200
C324        C  0.71063141  0.24626175  0.05867268     0.24500
C325        C  0.70776178  0.21916405  0.06089099    -0.18700
C326        C  0.70087063  0.20757006  0.09465575    -0.08700
C327        C  0.72088576  0.25895001  0.02454251    -0.19000
C328        C  0.74454785  0.24747680  0.00506811    -0.23800
C329        C  0.75368409  0.25924107  0.96963399     0.26600
C330        C  0.76316734  0.24291042  0.94127456    -0.20600
C331        C  0.76898692  0.25313717  0.90584461    -0.10200
C332        C  0.76564400  0.27993713  0.89837103    -0.10700
C333        C  0.75851567  0.29636551  0.92801647    -0.03700
C334        C  0.75276181  0.28617272  0.96331479    -0.18800
H335        H  0.69300888  0.26211359  0.14772603     0.10300
H336        H  0.70469886  0.28251268  0.08792293     0.10400
H337        H  0.71106199  0.20678475  0.03673990     0.10000
H338        H  0.70008452  0.18659364  0.09593554     0.11100
H339        H  0.70892855  0.27828383  0.01584171     0.11200
H340        H  0.75662402  0.22821446  0.01431811     0.13100
H341        H  0.76465630  0.22210405  0.94582675     0.09700
H342        H  0.77454437  0.24000735  0.88363666     0.11700
H343        H  0.75656094  0.31717683  0.92357577     0.08400
H344        H  0.74741887  0.29949267  0.98533805     0.11100
C345        C  0.07038759  0.26138632  0.24067661    -0.03500
C346        C  0.07217568  0.23411067  0.23934281    -0.06100
C347        C  0.03882926  0.21886939  0.24102842    -0.21200
C348        C  0.00343384  0.23059298  0.24471164     0.24500
C349        C  0.00087607  0.25779979  0.24368796    -0.18700
C350        C  0.03383690  0.27294776  0.24174799    -0.08700
C351        C  0.96895591  0.21451036  0.24889630    -0.19000
C352        C  0.94647368  0.22252008  0.27229688    -0.23800
C353        C  0.90734512  0.21057214  0.27350487     0.26600
C354        C  0.88456313  0.22437888  0.29385977    -0.20600
C355        C  0.84493011  0.21655672  0.29117837    -0.10200
C356        C  0.82706818  0.19444399  0.26842319    -0.10700
C357        C  0.85092795  0.17938030  0.25066189    -0.03700
C358        C  0.89063958  0.18739475  0.25297870    -0.18800
H359        H  0.09976937  0.22454354  0.23836032     0.10300
H360        H  0.04122562  0.19793017  0.24090418     0.10400
H361        H  0.97336271  0.26749515  0.24459271     0.10000
H362        H  0.03095800  0.29384419  0.24217187     0.11100
H363        H  0.96217254  0.19631068  0.23222182     0.11200
H364        H  0.95609027  0.24019194  0.29015795     0.13100
H365        H  0.89666981  0.24213024  0.31032810     0.09700
H366        H  0.82761092  0.22848221  0.30553703     0.11700
H367        H  0.83804828  0.16219748  0.23291630     0.08400
H368        H  0.90725626  0.17585051  0.23749656     0.11100
C369        C  0.56700426  0.22946635  0.24074208    -0.03500
C370        C  0.52962842  0.21579366  0.22728433    -0.06100
C371        C  0.49337596  0.22731419  0.22791758    -0.21200
C372        C  0.49332331  0.25275349  0.24231337     0.24500
C373        C  0.53027182  0.26712493  0.25359274    -0.18700
C374        C  0.56683452  0.25554268  0.25264257    -0.08700
C375        C  0.45415922  0.26246782  0.24627461    -0.19000
C376        C  0.44979957  0.28396473  0.26674859    -0.23800
C377        C  0.40959913  0.29024130  0.27169059     0.26600
C378        C  0.39560123  0.31591525  0.26773508    -0.20600
C379        C  0.35562900  0.32149846  0.26715642    -0.10200
C380        C  0.32923483  0.30149885  0.27127293    -0.10700
C381        C  0.34472853  0.27614873  0.27882630    -0.03700
C382        C  0.38440309  0.27057913  0.27896114    -0.18800
H383        H  0.52858701  0.19575291  0.21749335     0.10300
H384        H  0.46541837  0.21583904  0.21855675     0.10400
H385        H  0.53143265  0.28697788  0.26398666     0.10000
H386        H  0.59521163  0.26653672  0.26313666     0.11100
H387        H  0.42719524  0.25035586  0.23280296     0.11200
H388        H  0.47511655  0.29739134  0.27916072     0.13100
H389        H  0.41477401  0.33144171  0.26285225     0.09700
H390        H  0.34480186  0.34128434  0.26158700     0.11700
H391        H  0.32548653  0.26029464  0.28245026     0.08400
H392        H  0.39498220  0.25071236  0.28368688     0.11100
C393        C  0.37643109  0.12931713  0.88029014    -0.03500
C394        C  0.41715666  0.13185953  0.88062720    -0.06100
C395        C  0.45000187  0.12855212  0.91713892    -0.21200
C396        C  0.44315648  0.12264172  0.95433064     0.24500
C397        C  0.40242431  0.11869967  0.95357826    -0.18700
C398        C  0.36950700  0.12215723  0.91704473    -0.08700
C399        C  0.47941529  0.12146521  0.99283681    -0.19000
C400        C  0.47730487  0.12281947  0.03143106    -0.23800
C401        C  0.51392634  0.12482416  0.06966021     0.26600
C402        C  0.50784057  0.13193730  0.10679048    -0.20600
C403        C  0.54124085  0.13602521  0.14275495    -0.10200
C404        C  0.58170379  0.13317315  0.14248139    -0.10700
C405        C  0.58781682  0.12496278  0.10587400    -0.03700
C406        C  0.55446527  0.12062721  0.07005858    -0.18800
H407        H  0.42370549  0.13749676  0.85303020     0.10300
H408        H  0.48095247  0.13147689  0.91653709     0.10400
H409        H  0.39556349  0.11324739  0.98101211     0.10000
H410        H  0.33852245  0.11981736  0.91783235     0.11100
H411        H  0.50918378  0.12145198  0.98855974     0.11200
H412        H  0.44749764  0.12438677  0.03548553     0.13100
H413        H  0.47709960  0.13509705  0.10773749     0.09700
H414        H  0.53537297  0.14243050  0.17034215     0.11700
H415        H  0.61856439  0.12229897  0.10466646     0.08400
H416        H  0.56103817  0.11426639  0.04292503     0.11100
C417        C  0.20447582  0.58640223  0.29531346    -0.03500
C418        C  0.18393461  0.57571850  0.32087163    -0.06100
C419        C  0.18847962  0.54947918  0.33179582    -0.21200
C420        C  0.21399518  0.53332582  0.31793950     0.24500
C421        C  0.23656980  0.54438596  0.29447286    -0.18700
C422        C  0.23187269  0.57060771  0.28337959    -0.08700
C423        C  0.21190349  0.50475675  0.32385810    -0.19000
C424        C  0.24034735  0.48787230  0.32022652    -0.23800
C425        C  0.23401470  0.45918879  0.31651490     0.26600
C426        C  0.25898293  0.44482899  0.29939903    -0.20600
C427        C  0.25077369  0.41867568  0.28938552    -0.10200
C428        C  0.21739247  0.40606633  0.29642503    -0.10700
C429        C  0.19430308  0.41981865  0.31655520    -0.03700
C430        C  0.20253170  0.44609740  0.32658836    -0.18800
H431        H  0.16247770  0.58723250  0.33053759     0.10300
H432        H  0.17060594  0.54150886  0.34973601     0.10400
H433        H  0.25590185  0.53266060  0.28230499     0.10000
H434        H  0.24812627  0.57814893  0.26359914     0.11100
H435        H  0.18426505  0.49755356  0.32871032     0.11200
H436        H  0.26823399  0.49537965  0.31617461     0.13100
H437        H  0.28378677  0.45419101  0.29180001     0.09700
H438        H  0.26961574  0.40864835  0.27441915     0.11700
H439        H  0.16869289  0.41062778  0.32288748     0.08400
H440        H  0.18343460  0.45603811  0.34123062     0.11100
C441        C  0.73169477  0.58925021  0.72592283    -0.03500
C442        C  0.69905322  0.57664123  0.73436023    -0.06100
C443        C  0.69072548  0.55039894  0.72464563    -0.21200
C444        C  0.71496300  0.53600445  0.70661300     0.24500
C445        C  0.74548993  0.54916880  0.69511468    -0.18700
C446        C  0.75376485  0.57545019  0.70475724    -0.08700
C447        C  0.70911984  0.50723163  0.70331050    -0.19000
C448        C  0.73764013  0.49059628  0.69897225    -0.23800
C449        C  0.73651428  0.46189712  0.70447445     0.26600
C450        C  0.76365816  0.44649974  0.69163864    -0.20600
C451        C  0.76886752  0.42018527  0.70197037    -0.10200
C452        C  0.74722643  0.40856774  0.72576620    -0.10700
C453        C  0.71834547  0.42360470  0.73671774    -0.03700
C454        C  0.71306640  0.44994422  0.72629988    -0.18800
H455        H  0.68105966  0.58671999  0.75020368     0.10300
H456        H  0.66656242  0.54098909  0.73325740     0.10400
H457        H  0.76387801  0.53929547  0.67961071     0.10000
H458        H  0.77882043  0.58460047  0.69735027     0.11100
H459        H  0.68170686  0.49954050  0.70812395     0.11200
H460        H  0.76488316  0.49816080  0.69372878     0.13100
H461        H  0.78221190  0.45511699  0.67490913     0.09700
H462        H  0.79140271  0.40928796  0.69300527     0.11700
H463        H  0.70119754  0.41535811  0.75514734     0.08400
H464        H  0.69234804  0.46100134  0.73756948     0.11100
C465        C  0.07148491  0.62434207  0.13969994    -0.03500
C466        C  0.03068167  0.62909501  0.13746342    -0.06100
C467        C  0.99838926  0.62534675  0.10045390    -0.21200
C468        C  0.00593059  0.61680504  0.06468087     0.24500
C469        C  0.04651800  0.61050883  0.06760049    -0.18700
C470        C  0.07882910  0.61436610  0.10455321    -0.08700
C471        C  0.97074522  0.61546855  0.02515193    -0.19000
C472        C  0.97473515  0.61516211  0.98721333    -0.23800
C473        C  0.93933918  0.61745646  0.94801185     0.26600
C474        C  0.94664511  0.62650205  0.91237013    -0.20600
C475        C  0.91400472  0.63143237  0.87610467    -0.10200
C476        C  0.87313355  0.62730891  0.87451191    -0.10700
C477        C  0.86601483  0.61665145  0.90934200    -0.03700
C478        C  0.89862148  0.61166053  0.94550792    -0.18800
H479        H  0.02383686  0.63693280  0.16373409     0.10300
H480        H  0.96746736  0.63009479  0.09940716     0.10400
H481        H  0.05374046  0.60296731  0.04142288     0.10000
H482        H  0.10983723  0.61024009  0.10522274     0.11100
H483        H  0.94030395  0.61707957  0.02770310     0.11200
H484        H  0.00520053  0.61560673  0.98447894     0.13100
H485        H  0.97766424  0.63078098  0.91305074     0.09700
H486        H  0.92074142  0.63956242  0.84993431     0.11700
H487        H  0.83501477  0.61283708  0.90911938     0.08400
H488        H  0.89155187  0.60361427  0.97148403     0.11100
C489        C  0.23526932  0.90552398  0.72580334    -0.03500
C490        C  0.20142090  0.91752652  0.73251831    -0.06100
C491        C  0.19324005  0.94376770  0.72339347    -0.21200
C492        C  0.21877391  0.95879272  0.70764289     0.24500
C493        C  0.25099565  0.94632362  0.69820194    -0.18700
C494        C  0.25910894  0.92000136  0.70724477    -0.08700
C495        C  0.21226861  0.98745784  0.70480750    -0.19000
C496        C  0.23947779  0.00471164  0.69916759    -0.23800
C497        C  0.23719372  0.03321492  0.70517530     0.26600
C498        C  0.26027369  0.04972326  0.68862653    -0.20600
C499        C  0.26457975  0.07606437  0.69889898    -0.10200
C500        C  0.24624240  0.08652043  0.72645319    -0.10700
C501        C  0.22132790  0.07029854  0.74135122    -0.03700
C502        C  0.21689288  0.04394263  0.73093819    -0.18800
H503        H  0.18211563  0.90690553  0.74638166     0.10300
H504        H  0.16790334  0.95263945  0.73053049     0.10400
H505        H  0.27084186  0.95670116  0.68487465     0.10000
H506        H  0.28525156  0.91131463  0.70140394     0.11100
H507        H  0.18514461  0.99465331  0.71067339     0.11200
H508        H  0.26608977  0.99798667  0.69199289     0.13100
H509        H  0.27638390  0.04200140  0.66888484     0.09700
H510        H  0.28404407  0.08792102  0.68685137     0.11700
H511        H  0.20688771  0.07764976  0.76277129     0.08400
H512        H  0.19959828  0.03189838  0.74520784     0.11100
C513        C  0.23782286  0.78653959  0.63520401    -0.03500
C514        C  0.21059419  0.76528156  0.62445499    -0.06100
C515        C  0.20027699  0.75382403  0.58553515    -0.21200
C516        C  0.21710935  0.76293091  0.55603647     0.24500
C517        C  0.24340084  0.78477637  0.56599949    -0.18700
C518        C  0.25353855  0.79649827  0.60517458    -0.08700
C519        C  0.20559202  0.74908649  0.51547983    -0.19000
C520        C  0.22855966  0.74898418  0.49026226    -0.23800
C521        C  0.21765955  0.73436634  0.45029703     0.26600
C522        C  0.23777027  0.74117275  0.42221562    -0.20600
C523        C  0.22832009  0.72876178  0.38401990    -0.10200
C524        C  0.19850662  0.70889602  0.37255588    -0.10700
C525        C  0.17930829  0.70130757  0.40117918    -0.03700
C526        C  0.18876293  0.71384536  0.43960684    -0.18800
H527        H  0.19762890  0.75706649  0.64652812     0.10300
H528        H  0.17967024  0.73727979  0.57879363     0.10400
H529        H  0.25614781  0.79288847  0.54374051     0.10000
H530        H  0.27459935  0.81279735  0.61235348     0.11100
H531        H  0.17752888  0.73773759  0.50711131     0.11200
H532        H  0.25670211  0.76031357  0.49890968     0.13100
H533        H  0.26046359  0.75659540  0.42950942     0.09700
H534        H  0.24399989  0.73518901  0.36305241     0.11700
H535        H  0.15624212  0.68612536  0.39351082     0.08400
H536        H  0.17333434  0.70728910  0.46062711     0.11100
C537        C  0.26007798  0.77715865  0.89794798    -0.03500
C538        C  0.26893198  0.79268940  0.93342803    -0.06100
C539        C  0.26086947  0.78364796  0.96830095    -0.21200
C540        C  0.24321661  0.75911262  0.96824807     0.24500
C541        C  0.23679166  0.74287420  0.93374115    -0.18700
C542        C  0.24522457  0.75184027  0.89891417    -0.08700
C543        C  0.23159486  0.75141354  0.00453137    -0.19000
C544        C  0.20152919  0.73425182  0.00266665    -0.23800
C545        C  0.19092854  0.72672673  0.03951771     0.26600
C546        C  0.17959797  0.70097739  0.04327275    -0.20600
C547        C  0.17376251  0.69250518  0.07952766    -0.10200
C548        C  0.17819724  0.70983231  0.11229430    -0.10700
C549        C  0.18639419  0.73608059  0.10733993    -0.03700
C550        C  0.19294315  0.74447078  0.07126581    -0.18800
H551        H  0.28065486  0.81223284  0.93369415     0.10300
H552        H  0.26679494  0.79632435  0.99478625     0.10400
H553        H  0.22477840  0.72342428  0.93322442     0.10000
H554        H  0.23813220  0.73943131  0.87203364     0.11100
H555        H  0.24759845  0.76092356  0.03360442     0.11200
H556        H  0.18543511  0.72443295  0.97395513     0.13100
H557        H  0.17724891  0.68709797  0.01890948     0.09700
H558        H  0.16710650  0.67218887  0.08249863     0.11700
H559        H  0.18993999  0.74979760  0.13216099     0.08400
H560        H  0.20027059  0.76468002  0.06856877     0.11100
C561        C  0.38140028  0.76194629  0.77268574    -0.03500
C562        C  0.38832150  0.73717331  0.79073286    -0.06100
C563        C  0.42322535  0.72293002  0.79130121    -0.21200
C564        C  0.45130779  0.73299571  0.77322077     0.24500
C565        C  0.44476808  0.75801273  0.75621563    -0.18700
C566        C  0.41036685  0.77218634  0.75585193    -0.08700
C567        C  0.48837977  0.71791991  0.77412861    -0.19000
C568        C  0.50662090  0.72086363  0.74504941    -0.23800
C569        C  0.54752177  0.71021228  0.74789678     0.26600
C570        C  0.56970664  0.72258739  0.72537555    -0.20600
C571        C  0.60991681  0.71523065  0.72990560    -0.10200
C572        C  0.62879152  0.69498701  0.75667691    -0.10700
C573        C  0.60571960  0.68147873  0.77732255    -0.03700
C574        C  0.56551629  0.68904983  0.77310885    -0.18800
H575        H  0.36678753  0.72879686  0.80420308     0.10300
H576        H  0.42802308  0.70389215  0.80534910     0.10400
H577        H  0.46655828  0.76701397  0.74371973     0.10000
H578        H  0.40647615  0.79128046  0.74200360     0.11100
H579        H  0.50137398  0.70500702  0.79998664     0.11200
H580        H  0.49232125  0.73340241  0.71894698     0.13100
H581        H  0.55647040  0.73877457  0.70539330     0.09700
H582        H  0.62664920  0.72594806  0.71334526     0.11700
H583        H  0.61930441  0.66573448  0.79811622     0.08400
H584        H  0.54902416  0.67851494  0.79002940     0.11100
C585        C  0.12712452  0.80057914  0.75564387    -0.03500
C586        C  0.10151579  0.82062212  0.76075690    -0.06100
C587        C  0.06146130  0.81519461  0.76028338    -0.21200
C588        C  0.04669682  0.78961095  0.75563304     0.24500
C589        C  0.07127696  0.76989234  0.74782839    -0.18700
C590        C  0.11096536  0.77532511  0.74772713    -0.08700
C591        C  0.00626998  0.78347057  0.76026340    -0.19000
C592        C  0.00126152  0.76190098  0.78030023    -0.23800
C593        C  0.96179322  0.75231232  0.78394526     0.26600
C594        C  0.96140294  0.72712226  0.79928858    -0.20600
C595        C  0.92480423  0.71556717  0.79926325    -0.10200
C596        C  0.88761550  0.72905992  0.78449953    -0.10700
C597        C  0.88799058  0.75490862  0.77170064    -0.03700
C598        C  0.92480858  0.76646695  0.77116812    -0.18800
H599        H  0.11293697  0.84032522  0.76665929     0.10300
H600        H  0.04277571  0.83075737  0.76564756     0.10400
H601        H  0.06014101  0.75009762  0.74269772     0.10000
H602        H  0.12968279  0.75943503  0.74351406     0.11100
H603        H  0.98136602  0.79707351  0.74801521     0.11200
H604        H  0.02793117  0.74968006  0.79375314     0.13100
H605        H  0.98935278  0.71582365  0.80976121     0.09700
H606        H  0.92534714  0.69565259  0.80951874     0.11700
H607        H  0.85957014  0.76563207  0.75997873     0.08400
H608        H  0.92377721  0.78607797  0.75981416     0.11100
C609        C  0.71470080  0.90661233  0.28752443    -0.03500
C610        C  0.74911128  0.91760542  0.28024437    -0.06100
C611        C  0.75867254  0.94386411  0.28827707    -0.21200
C612        C  0.73402744  0.95989258  0.30352682     0.24500
C613        C  0.70117070  0.94843341  0.31342855    -0.18700
C614        C  0.69178378  0.92209609  0.30562332    -0.08700
C615        C  0.74161326  0.98849510  0.30467752    -0.19000
C616        C  0.71868146  0.00632068  0.31588277    -0.23800
C617        C  0.72118523  0.03476827  0.30923394     0.26600
C618        C  0.70255599  0.05168334  0.32979329    -0.20600
C619        C  0.69883609  0.07812759  0.32031203    -0.10200
C620        C  0.71346548  0.08832370  0.28973484    -0.10700
C621        C  0.73379800  0.07163123  0.27043085    -0.03700
C622        C  0.73749015  0.04516157  0.27989418    -0.18800
H623        H  0.76766249  0.90618558  0.26659319     0.10300
H624        H  0.78436446  0.95194287  0.28064853     0.10400
H625        H  0.68133207  0.95963243  0.32557892     0.10000
H626        H  0.66507665  0.91424645  0.31159003     0.11100
H627        H  0.76606519  0.99509391  0.29361453     0.11200
H628        H  0.69574576  0.00015845  0.32925214     0.13100
H629        H  0.68951583  0.04425098  0.35233167     0.09700
H630        H  0.68288293  0.09035478  0.33573477     0.11700
H631        H  0.74514899  0.07875364  0.24649023     0.08400
H632        H  0.75115586  0.03287938  0.26245591     0.11100
C633        C  0.69750087  0.79034738  0.37875828    -0.03500
C634        C  0.68412517  0.80419065  0.40726557    -0.06100
C635        C  0.69080570  0.79447984  0.44713099    -0.21200
C636        C  0.71071586  0.77060828  0.45958838     0.24500
C637        C  0.72529893  0.75718238  0.43148975    -0.18700
C638        C  0.71870616  0.76689294  0.39173277    -0.08700
C639        C  0.71638109  0.76085716  0.50224838    -0.19000
C640        C  0.72485515  0.73590933  0.51448738    -0.23800
C641        C  0.73107221  0.72617810  0.55727978     0.26600
C642        C  0.75048788  0.70211182  0.56927070    -0.20600
C643        C  0.75806014  0.69248651  0.60931606    -0.10200
C644        C  0.74610419  0.70660868  0.63851252    -0.10700
C645        C  0.72540239  0.73028085  0.62607173    -0.03700
C646        C  0.71789638  0.73990497  0.58610796    -0.18800
H647        H  0.66760692  0.82223392  0.39850153     0.10300
H648        H  0.67960904  0.80547488  0.46812795     0.10400
H649        H  0.74204242  0.73923844  0.43990342     0.10000
H650        H  0.72975510  0.75568196  0.37085836     0.11100
H651        H  0.71297331  0.77506654  0.52414408     0.11200
H652        H  0.72811486  0.72171503  0.49248943     0.13100
H653        H  0.76063006  0.69088639  0.54774872     0.09700
H654        H  0.77407141  0.67423848  0.61762441     0.11700
H655        H  0.71540498  0.74169468  0.64748557     0.08400
H656        H  0.70161866  0.75803774  0.57816306     0.11100
C657        C  0.76587947  0.71719743  0.90162685    -0.03500
C658        C  0.77984566  0.70235498  0.93783459    -0.06100
C659        C  0.77355169  0.71080622  0.97391410    -0.21200
C660        C  0.75239127  0.73391947  0.97421394     0.24500
C661        C  0.74124859  0.74977089  0.93894391    -0.15500
C662        C  0.74810456  0.74149559  0.90296725    -0.08700
C663        C  0.74118141  0.74039460  0.01120490    -0.19000
C664        C  0.70641409  0.75306941  0.00892869    -0.23800
C665        C  0.69473455  0.75954387  0.04562699     0.26600
C666        C  0.67258706  0.78235624  0.04508866    -0.20600
C667        C  0.66497202  0.79070713  0.08053409    -0.10200
C668        C  0.67852891  0.77603889  0.11690821    -0.10700
C669        C  0.69751338  0.75205656  0.11647838    -0.03700
C670        C  0.70578614  0.74390191  0.08113784    -0.18800
H671        H  0.79402173  0.68364543  0.93773739     0.10300
H672        H  0.78315794  0.69854262  0.00096850     0.10400
H673        H  0.72634995  0.76823573  0.93873762     0.10000
H674        H  0.73716528  0.75334526  0.87553865     0.11100
H675        H  0.76114745  0.73341782  0.04074227     0.11200
H676        H  0.68644932  0.75995405  0.97932839     0.13100
H677        H  0.66311631  0.79446740  0.01785842     0.09700
H678        H  0.65015383  0.80925655  0.08010739     0.11700
H679        H  0.70840259  0.74047727  0.14421067     0.08400
H680        H  0.72156789  0.72569499  0.08200222     0.11100
C681        C  0.81459995  0.79829426  0.25890194    -0.03500
C682        C  0.84188391  0.81794487  0.25563569    -0.06100
C683        C  0.88169068  0.81181675  0.25634335    -0.21200
C684        C  0.89465488  0.78592683  0.25942205     0.24500
C685        C  0.86832046  0.76647740  0.26521427    -0.18700
C686        C  0.82878944  0.77260159  0.26503192    -0.08700
C687        C  0.93522384  0.77941536  0.25553433    -0.19000
C688        C  0.94024242  0.75784779  0.23553418    -0.23800
C689        C  0.97967989  0.74863919  0.23143804     0.26600
C690        C  0.97909480  0.72484515  0.21136572    -0.20600
C691        C  0.01542715  0.71342014  0.21054662    -0.10200
C692        C  0.05334305  0.72570687  0.22923851    -0.10700
C693        C  0.05407577  0.75028158  0.24709541    -0.03700
C694        C  0.01757414  0.76164271  0.24846127    -0.18800
H695        H  0.83200789  0.83795901  0.25108753     0.10300
H696        H  0.90169055  0.82717132  0.25252104     0.10400
H697        H  0.87798511  0.74641512  0.26914867     0.10000
H698        H  0.80870754  0.75699142  0.26774275     0.11100
H699        H  0.96018587  0.79310866  0.26770466     0.11200
H700        H  0.91347372  0.74567059  0.22158741     0.13100
H701        H  0.95047976  0.71444190  0.19765880     0.09700
H702        H  0.01404244  0.69445871  0.19654520     0.11700
H703        H  0.08306178  0.75997600  0.26214595     0.08400
H704        H  0.01962875  0.78004926  0.26400727     0.11100
C705        C  0.31286178  0.69205230  0.25556312    -0.03500
C706        C  0.34059261  0.67279773  0.25246114    -0.06100
C707        C  0.38035841  0.67953622  0.25327074    -0.21200
C708        C  0.39289049  0.70561896  0.25652106     0.24500
C709        C  0.36604138  0.72462795  0.26214225    -0.18700
C710        C  0.32659158  0.71793588  0.26162538    -0.08700
C711        C  0.43381266  0.71279947  0.25375733    -0.19000
C712        C  0.43953484  0.73518086  0.23596470    -0.23800
C713        C  0.47956660  0.74526280  0.23427481     0.26600
C714        C  0.48062193  0.77093918  0.22104072    -0.20600
C715        C  0.51750593  0.78249685  0.22180959    -0.10200
C716        C  0.55440319  0.76856044  0.23524408    -0.10700
C717        C  0.55340445  0.74243739  0.24655182    -0.03700
C718        C  0.51632713  0.73087167  0.24631769    -0.18800
H719        H  0.33112896  0.65266503  0.24792303     0.10300
H720        H  0.40077296  0.66447937  0.24966147     0.10400
H721        H  0.37529332  0.74479408  0.26652821     0.10000
H722        H  0.30636797  0.73328598  0.26461027     0.11100
H723        H  0.45879625  0.69921337  0.26576651     0.11200
H724        H  0.41305234  0.74754644  0.22256201     0.13100
H725        H  0.45289299  0.78247985  0.21125121     0.09700
H726        H  0.51731566  0.80263224  0.21269326     0.11700
H727        H  0.58151685  0.73133286  0.25727294     0.08400
H728        H  0.51694140  0.71093151  0.25615385     0.11100
C729        C  0.37560811  0.86090766  0.87209331    -0.03500
C730        C  0.41530884  0.85229290  0.87571224    -0.06100
C731        C  0.44787729  0.85562929  0.91266706    -0.21200
C732        C  0.44162412  0.86753667  0.94698443     0.24500
C733        C  0.40232795  0.87723896  0.94272242    -0.18700
C734        C  0.36977544  0.87383730  0.90587470    -0.08700
C735        C  0.47670611  0.86932492  0.98646363    -0.19000
C736        C  0.47217487  0.87190978  0.02395932    -0.23800
C737        C  0.50711278  0.87125673  0.06362076     0.26600
C738        C  0.49947400  0.86386751  0.09988019    -0.20600
C739        C  0.53179902  0.86098294  0.13707717    -0.10200
C740        C  0.57262616  0.86558167  0.13895169    -0.10700
C741        C  0.57995674  0.87455593  0.10322927    -0.03700
C742        C  0.54766504  0.87744747  0.06610433    -0.18800
H743        H  0.42091323  0.84205804  0.85054041     0.10300
H744        H  0.47785303  0.84816758  0.91483049     0.10400
H745        H  0.39638445  0.88736820  0.96774968     0.10000
H746        H  0.33970957  0.88090256  0.90415791     0.11100
H747        H  0.50720097  0.86643032  0.98456158     0.11200
H748        H  0.44150832  0.87244603  0.02618745     0.13100
H749        H  0.46850995  0.85932192  0.09909687     0.09700
H750        H  0.52495286  0.85396743  0.16384836     0.11700
H751        H  0.61093969  0.87857900  0.10357334     0.08400
H752        H  0.55477650  0.88422654  0.03940081     0.11100
loop_ 
_geom_bond_atom_site_label_1 
_geom_bond_atom_site_label_2 
_geom_bond_distance 
_geom_bond_site_symmetry_2 
_ccdc_geom_bond_type 
Fe1          O17   2.088       .  S
Fe1           O7   2.048       .  S
Fe1          O14   2.076       .  S
Fe1           O6   2.095       .  S
Fe1          O12   1.979       .  S
Fe2           O5   2.043       .  S
Fe2           O9   2.061       .  S
Fe2          O13   2.052       .  S
Fe2          O18   2.061       .  S
Fe2          O12   1.978       .  S
Fe3          O21   2.075       .  S
Fe3           O8   2.077       .  S
Fe3          O15   2.082       .  S
Fe3           O4   2.069       .  S
Fe3          O12   1.985       .  S
O4           C11   1.273       .  A
O5           C19   1.264       .  A
O6           C11   1.278       .  A
O7           C10   1.265       .  A
O8           C20   1.273       .  A
O9           C22   1.269       .  A
C10          O15   1.270       .  A
C10         C716   1.479       .  S
C11         C633   1.496       .  S
O13          C16   1.264       .  A
O14          C16   1.269       .  A
C16         C609   1.485       .  S
O17          C22   1.275       .  A
O18          C20   1.270       .  A
C19          O21   1.269       .  A
C19         C668   1.473       .  S
C20         C681   1.484       .  S
C22         C740   1.491       .  S
Fe23         O39   2.090       .  S
Fe23         O29   2.045       .  S
Fe23         O36   2.076       .  S
Fe23         O28   2.099       .  S
Fe23         O34   1.976       .  S
Fe24         O27   2.047       .  S
Fe24         O31   2.068       .  S
Fe24         O35   2.052       .  S
Fe24         O40   2.066       .  S
Fe24         O34   1.974       .  S
Fe25         O43   2.069       .  S
Fe25         O30   2.073       .  S
Fe25         O37   2.083       .  S
Fe25         O26   2.067       .  S
Fe25         O34   1.974       .  S
O26          C33   1.273       .  A
O27          C41   1.264       .  A
O28          C33   1.279       .  A
O29          C32   1.264       .  A
O30          C42   1.274       .  A
O31          C44   1.272       .  A
C32          O37   1.270       .  A
C32         C561   1.486       .  S
C33         C513   1.495       .  S
O35          C38   1.264       .  A
O36          C38   1.268       .  A
C38         C489   1.485       .  S
O39          C44   1.277       .  A
O40          C42   1.271       .  A
C41          O43   1.268       .  A
C41         C537   1.477       .  S
C42         C585   1.484       .  S
C44         C729   1.492       .  S
Fe45         O61   2.074       .  S
Fe45         O51   2.092       .  S
Fe45         O58   2.084       .  S
Fe45         O50   2.049       .  S
Fe45         O56   1.977       .  S
Fe46         O49   2.071       .  S
Fe46         O53   2.061       .  S
Fe46         O57   2.068       .  S
Fe46         O62   2.047       .  S
Fe46         O56   1.979       .  S
Fe47         O65   2.068       .  S
Fe47         O52   2.077       .  S
Fe47         O59   2.071       .  S
Fe47         O48   2.077       .  S
Fe47         O56   1.984       .  S
O48          C55   1.270       .  A
O49          C63   1.271       .  A
O50          C55   1.266       .  A
O51          C54   1.277       .  A
O52          C64   1.270       .  A
O53          C66   1.267       .  A
C54          O59   1.272       .  A
C54         C644   1.497       .  S
C55         C596   1.475       .  S
O57          C60   1.270       .  A
O58          C60   1.273       .  A
C60         C476   1.492       .  S
O61          C66   1.270       .  A
O62          C64   1.265       .  A
C63          O65   1.272       .  A
C63         C572   1.485       .  S
C64         C657   1.476       .  S
C66         C441   1.488       .  S
Fe67         O83   2.068       .  S
Fe67         O73   2.114       .  S
Fe67         O80   2.101       .  S
Fe67         O72   2.042       .  S
Fe67         O78   1.970       .  S
Fe68         O71   2.068       .  S
Fe68         O75   2.063       .  S
Fe68         O79   2.057       .  S
Fe68         O84   2.055       .  S
Fe68         O78   1.974       .  S
Fe69         O87   2.075       .  S
Fe69         O74   2.065       .  S
Fe69         O81   2.055       .  S
Fe69         O70   2.082       .  S
Fe69         O78   1.973       .  S
O70          C77   1.268       .  A
O71          C85   1.271       .  A
O72          C77   1.262       .  A
O73          C76   1.282       .  A
O74          C86   1.269       .  A
O75          C88   1.266       .  A
C76          O81   1.272       .  A
C76         C524   1.497       .  S
C77         C692   1.476       .  S
O79          C82   1.270       .  A
O80          C82   1.279       .  A
C82         C465   1.492       .  S
O83          C88   1.267       .  A
O84          C86   1.267       .  A
C85          O87   1.273       .  A
C85         C705   1.487       .  S
C86         C548   1.473       .  S
C88         C417   1.487       .  S
Fe89        O105   2.059       .  S
Fe89         O95   2.095       .  S
Fe89        O102   2.092       .  S
Fe89         O94   2.038       .  S
Fe89        O100   1.970       .  S
Fe90         O93   2.067       .  S
Fe90         O97   2.066       .  S
Fe90        O101   2.059       .  S
Fe90        O106   2.052       .  S
Fe90        O100   1.974       .  S
Fe91        O109   2.082       .  S
Fe91         O96   2.067       .  S
Fe91        O103   2.059       .  S
Fe91         O92   2.090       .  S
Fe91        O100   1.975       .  S
O92          C99   1.271       .  A
O93         C107   1.273       .  A
O94          C99   1.263       .  A
O95          C98   1.277       .  A
O96         C108   1.268       .  A
O97         C110   1.267       .  A
C98         O103   1.271       .  A
C98         C308   1.492       .  S
C99         C369   1.481       .  S
O101        C104   1.271       .  A
O102        C104   1.276       .  A
C104        C404   1.488       .  S
O105        C110   1.266       .  A
O106        C108   1.266       .  A
C107        O109   1.276       .  A
C107        C356   1.486       .  S
C108        C321   1.479       .  S
C110        C620   1.486       .  S
Fe111       O127   2.059       .  S
Fe111       O117   2.093       .  S
Fe111       O124   2.089       .  S
Fe111       O116   2.038       .  S
Fe111       O122   1.969       .  S
Fe112       O115   2.064       .  S
Fe112       O119   2.068       .  S
Fe112       O123   2.061       .  S
Fe112       O128   2.057       .  S
Fe112       O122   1.973       .  S
Fe113       O131   2.086       .  S
Fe113       O118   2.065       .  S
Fe113       O125   2.058       .  S
Fe113       O114   2.091       .  S
Fe113       O122   1.975       .  S
O114        C121   1.271       .  A
O115        C129   1.272       .  A
O116        C121   1.263       .  A
O117        C120   1.277       .  A
O118        C130   1.269       .  A
O119        C132   1.267       .  A
C120        O125   1.272       .  A
C120        C212   1.490       .  S
C121        C260   1.482       .  S
O123        C126   1.271       .  A
O124        C126   1.276       .  A
C126        C393   1.488       .  S
O127        C132   1.266       .  A
O128        C130   1.267       .  A
C129        O131   1.276       .  A
C129        C273   1.489       .  S
C130        C225   1.478       .  S
C132        C500   1.487       .  S
Fe133       O149   2.099       .  S
Fe133       O139   2.042       .  S
Fe133       O146   2.069       .  S
Fe133       O138   2.103       .  S
Fe133       O144   1.969       .  S
Fe134       O137   2.055       .  S
Fe134       O141   2.055       .  S
Fe134       O145   2.062       .  S
Fe134       O150   2.060       .  S
Fe134       O144   1.972       .  S
Fe135       O153   2.069       .  S
Fe135       O140   2.083       .  S
Fe135       O147   2.086       .  S
Fe135       O136   2.061       .  S
Fe135       O144   1.976       .  S
O136        C143   1.275       .  A
O137        C151   1.267       .  A
O138        C143   1.282       .  A
O139        C142   1.262       .  A
O140        C152   1.273       .  A
O141        C154   1.271       .  A
C142        O147   1.268       .  A
C142        C284   1.484       .  S
C143        C297   1.493       .  S
O145        C148   1.265       .  A
O146        C148   1.267       .  A
C148        C452   1.490       .  S
O149        C154   1.279       .  A
O150        C152   1.269       .  A
C151        O153   1.270       .  A
C151        C332   1.478       .  S
C152        C249   1.486       .  S
C154        C177   1.490       .  S
Fe155       O171   2.092       .  S
Fe155       O161   2.057       .  S
Fe155       O168   2.081       .  S
Fe155       O160   2.092       .  S
Fe155       O166   1.980       .  S
Fe156       O159   2.053       .  S
Fe156       O163   2.058       .  S
Fe156       O167   2.049       .  S
Fe156       O172   2.058       .  S
Fe156       O166   1.976       .  S
Fe157       O175   2.067       .  S
Fe157       O162   2.076       .  S
Fe157       O169   2.078       .  S
Fe157       O158   2.061       .  S
Fe157       O166   1.980       .  S
O158        C165   1.273       .  A
O159        C173   1.267       .  A
O160        C165   1.279       .  A
O161        C164   1.266       .  A
O162        C174   1.271       .  A
O163        C176   1.269       .  A
C164        O169   1.268       .  A
C164        C345   1.490       .  S
C165        C201   1.489       .  S
O167        C170   1.264       .  A
O168        C170   1.269       .  A
C170        C428   1.487       .  S
O171        C176   1.276       .  A
O172        C174   1.267       .  A
C173        O175   1.270       .  A
C173        C236   1.479       .  S
C174        C380   1.485       .  S
C176        C188   1.489       .  S
C177        C178   1.408       .  A
C177        C182   1.407       .  A
C178        C179   1.398       .  A
C178        H191   1.083       .  S
C179        C180   1.403       .  A
C179        H192   1.084       .  S
C180        C181   1.412       .  A
C180        C183   1.495   1_556  S
C181        C182   1.405       .  A
C181        H193   1.081       .  S
C182        H194   1.083       .  S
C183        C184   1.348   1_655  D
C183        H195   1.085       .  S
C184        C185   1.495       .  S
C184        H196   1.085   1_554  S
C185        C186   1.403       .  A
C185        C190   1.412       .  A
C186        C187   1.398       .  A
C186        H197   1.084       .  S
C187        C188   1.408       .  A
C187        H198   1.083       .  S
C188        C189   1.406       .  A
C189        C190   1.404       .  A
C189        H199   1.083       .  S
C190        H200   1.081   1_455  S
C201        C202   1.406       .  A
C201        C206   1.409       .  A
C202        C203   1.403       .  A
C202        H215   1.083       .  S
C203        C204   1.407       .  A
C203        H216   1.084       .  S
C204        C205   1.406       .  A
C204        C207   1.492       .  S
C205        C206   1.398       .  A
C205        H217   1.081       .  S
C206        H218   1.083       .  S
C207        C208   1.353       .  D
C207        H219   1.084       .  S
C208        C209   1.494       .  S
C208        H220   1.085       .  S
C209        C210   1.407       .  A
C209        C214   1.407       .  A
C210        C211   1.403       .  A
C210        H221   1.084       .  S
C211        C212   1.406       .  A
C211        H222   1.083       .  S
C212        C213   1.408       .  A
C213        C214   1.398       .  A
C213        H223   1.083       .  S
C214        H224   1.080       .  S
C225        C226   1.404       .  A
C225        C230   1.406       .  A
C226        C227   1.399       .  A
C226        H239   1.083       .  S
C227        C228   1.404       .  A
C227        H240   1.083       .  S
C228        C229   1.405       .  A
C228        C231   1.482       .  S
C229        C230   1.394       .  A
C229        H241   1.082       .  S
C230        H242   1.083       .  S
C231        C232   1.349   1_556  D
C231        H243   1.085   1_556  S
C232        C233   1.483       .  S
C232        H244   1.085       .  S
C233        C234   1.404       .  A
C233        C238   1.405       .  A
C234        C235   1.398       .  A
C234        H245   1.083       .  S
C235        C236   1.405       .  A
C235        H246   1.083       .  S
C236        C237   1.407       .  A
C237        C238   1.394       .  A
C237        H247   1.083       .  S
C238        H248   1.082       .  S
C249        C250   1.408       .  A
C249        C254   1.407       .  A
C250        C251   1.402       .  A
C250        H263   1.083       .  S
C251        C252   1.403       .  A
C251        H264   1.083       .  S
C252        C253   1.407       .  A
C252        C255   1.488       .  S
C253        C254   1.397       .  A
C253        H265   1.082       .  S
C254        H266   1.083       .  S
C255        C256   1.348       .  D
C255        H267   1.084       .  S
C256        C257   1.490       .  S
C256        H268   1.087       .  S
C257        C258   1.402       .  A
C257        C262   1.411       .  A
C258        C259   1.393       .  A
C258        H269   1.084       .  S
C259        C260   1.405       .  A
C259        H270   1.084       .  S
C260        C261   1.405       .  A
C261        C262   1.406       .  A
C261        H271   1.083       .  S
C262        H272   1.081       .  S
C273        C274   1.409       .  A
C273        C278   1.407       .  A
C274        C275   1.402       .  A
C274        H287   1.083       .  S
C275        C276   1.403       .  A
C275        H288   1.083       .  S
C276        C277   1.407       .  A
C276        C279   1.490       .  S
C277        C278   1.398       .  A
C277        H289   1.082       .  S
C278        H290   1.083       .  S
C279        C280   1.349       .  D
C279        H291   1.084   1_455  S
C280        C281   1.493   1_455  S
C280        H292   1.087       .  S
C281        C282   1.403       .  A
C281        C286   1.412       .  A
C282        C283   1.394       .  A
C282        H293   1.084   1_655  S
C283        C284   1.405       .  A
C283        H294   1.083       .  S
C284        C285   1.407       .  A
C285        C286   1.407       .  A
C285        H295   1.083       .  S
C286        H296   1.080       .  S
C297        C298   1.406       .  A
C297        C302   1.410       .  A
C298        C299   1.404       .  A
C298        H311   1.083       .  S
C299        C300   1.408       .  A
C299        H312   1.083       .  S
C300        C301   1.406       .  A
C300        C303   1.495       .  S
C301        C302   1.399       .  A
C301        H313   1.081       .  S
C302        H314   1.083       .  S
C303        C304   1.354       .  D
C303        H315   1.084       .  S
C304        C305   1.496       .  S
C304        H316   1.084       .  S
C305        C306   1.407       .  A
C305        C310   1.407       .  A
C306        C307   1.404       .  A
C306        H317   1.083       .  S
C307        C308   1.406       .  A
C307        H318   1.083       .  S
C308        C309   1.409       .  A
C309        C310   1.399       .  A
C309        H319   1.083       .  S
C310        H320   1.081       .  S
C321        C322   1.405       .  A
C321        C326   1.406       .  A
C322        C323   1.401       .  A
C322        H335   1.083       .  S
C323        C324   1.405       .  A
C323        H336   1.083       .  S
C324        C325   1.404       .  A
C324        C327   1.482       .  S
C325        C326   1.392       .  A
C325        H337   1.082       .  S
C326        H338   1.083       .  S
C327        C328   1.350       .  D
C327        H339   1.084       .  S
C328        C329   1.482   1_554  S
C328        H340   1.085       .  S
C329        C330   1.405       .  A
C329        C334   1.404       .  A
C330        C331   1.399       .  A
C330        H341   1.083       .  S
C331        C332   1.404       .  A
C331        H342   1.083       .  S
C332        C333   1.407       .  A
C333        C334   1.394       .  A
C333        H343   1.083       .  S
C334        H344   1.082       .  S
C345        C346   1.409       .  A
C345        C350   1.407       .  A
C346        C347   1.406       .  A
C346        H359   1.083       .  S
C347        C348   1.405       .  A
C347        H360   1.083       .  S
C348        C349   1.405       .  A
C348        C351   1.491   1_455  S
C349        C350   1.395       .  A
C349        H361   1.083   1_455  S
C350        H362   1.083       .  S
C351        C352   1.351       .  D
C351        H363   1.084       .  S
C352        C353   1.493       .  S
C352        H364   1.087       .  S
C353        C354   1.405       .  A
C353        C358   1.409       .  A
C354        C355   1.396       .  A
C354        H365   1.084       .  S
C355        C356   1.404       .  A
C355        H366   1.083       .  S
C356        C357   1.408       .  A
C357        C358   1.405       .  A
C357        H367   1.083       .  S
C358        H368   1.080       .  S
C369        C370   1.405       .  A
C369        C374   1.406       .  A
C370        C371   1.392       .  A
C370        H383   1.083       .  S
C371        C372   1.402       .  A
C371        H384   1.084       .  S
C372        C373   1.411       .  A
C372        C375   1.488       .  S
C373        C374   1.406       .  A
C373        H385   1.080       .  S
C374        H386   1.083       .  S
C375        C376   1.348       .  D
C375        H387   1.087       .  S
C376        C377   1.486       .  S
C376        H388   1.084       .  S
C377        C378   1.402       .  A
C377        C382   1.406       .  A
C378        C379   1.402       .  A
C378        H389   1.083       .  S
C379        C380   1.410       .  A
C379        H390   1.083       .  S
C380        C381   1.405       .  A
C381        C382   1.396       .  A
C381        H391   1.083       .  S
C382        H392   1.083       .  S
C393        C394   1.405       .  A
C393        C398   1.408       .  A
C394        C395   1.399       .  A
C394        H407   1.083       .  S
C395        C396   1.406       .  A
C395        H408   1.083       .  S
C396        C397   1.409       .  A
C396        C399   1.496       .  S
C397        C398   1.402       .  A
C397        H409   1.081       .  S
C398        H410   1.083       .  S
C399        C400   1.353   1_556  D
C399        H411   1.082       .  S
C400        C401   1.499       .  S
C400        H412   1.084       .  S
C401        C402   1.407       .  A
C401        C406   1.410       .  A
C402        C403   1.402       .  A
C402        H413   1.083       .  S
C403        C404   1.405       .  A
C403        H414   1.083       .  S
C404        C405   1.407       .  A
C405        C406   1.400       .  A
C405        H415   1.083       .  S
C406        H416   1.080       .  S
C417        C418   1.406       .  A
C417        C422   1.407       .  A
C418        C419   1.399       .  A
C418        H431   1.083       .  S
C419        C420   1.404       .  A
C419        H432   1.083       .  S
C420        C421   1.409       .  A
C420        C423   1.491       .  S
C421        C422   1.400       .  A
C421        H433   1.081       .  S
C422        H434   1.083       .  S
C423        C424   1.349       .  D
C423        H435   1.083       .  S
C424        C425   1.493       .  S
C424        H436   1.085       .  S
C425        C426   1.403       .  A
C425        C430   1.411       .  A
C426        C427   1.396       .  A
C426        H437   1.083       .  S
C427        C428   1.407       .  A
C427        H438   1.083       .  S
C428        C429   1.406       .  A
C429        C430   1.403       .  A
C429        H439   1.083       .  S
C430        H440   1.080       .  S
C441        C442   1.406       .  A
C441        C446   1.406       .  A
C442        C443   1.400       .  A
C442        H455   1.083       .  S
C443        C444   1.405       .  A
C443        H456   1.083       .  S
C444        C445   1.410       .  A
C444        C447   1.496       .  S
C445        C446   1.401       .  A
C445        H457   1.080       .  S
C446        H458   1.083       .  S
C447        C448   1.351       .  D
C447        H459   1.084       .  S
C448        C449   1.494       .  S
C448        H460   1.083       .  S
C449        C450   1.405       .  A
C449        C454   1.409       .  A
C450        C451   1.400       .  A
C450        H461   1.083       .  S
C451        C452   1.406       .  A
C451        H462   1.083       .  S
C452        C453   1.408       .  A
C453        C454   1.402       .  A
C453        H463   1.083       .  S
C454        H464   1.081       .  S
C465        C466   1.405       .  A
C465        C470   1.410       .  A
C466        C467   1.403   1_455  A
C466        H479   1.083       .  S
C467        C468   1.407   1_655  A
C467        H480   1.083       .  S
C468        C469   1.408       .  A
C468        C471   1.498   1_455  S
C469        C470   1.402       .  A
C469        H481   1.081       .  S
C470        H482   1.083       .  S
C471        C472   1.355   1_554  D
C471        H483   1.084       .  S
C472        C473   1.498       .  S
C472        H484   1.084   1_655  S
C473        C474   1.407       .  A
C473        C478   1.408       .  A
C474        C475   1.403       .  A
C474        H485   1.083       .  S
C475        C476   1.407       .  A
C475        H486   1.083       .  S
C476        C477   1.409       .  A
C477        C478   1.401       .  A
C477        H487   1.083       .  S
C478        H488   1.081       .  S
C489        C490   1.406       .  A
C489        C494   1.405       .  A
C490        C491   1.398       .  A
C490        H503   1.083       .  S
C491        C492   1.404       .  A
C491        H504   1.083       .  S
C492        C493   1.411       .  A
C492        C495   1.494       .  S
C493        C494   1.401       .  A
C493        H505   1.079       .  S
C494        H506   1.083       .  S
C495        C496   1.349   1_565  D
C495        H507   1.085       .  S
C496        C497   1.490       .  S
C496        H508   1.082   1_545  S
C497        C498   1.403       .  A
C497        C502   1.409       .  A
C498        C499   1.398       .  A
C498        H509   1.083       .  S
C499        C500   1.407       .  A
C499        H510   1.083       .  S
C500        C501   1.407       .  A
C501        C502   1.400       .  A
C501        H511   1.083       .  S
C502        H512   1.081       .  S
C513        C514   1.408       .  A
C513        C518   1.408       .  A
C514        C515   1.397       .  A
C514        H527   1.083       .  S
C515        C516   1.402       .  A
C515        H528   1.083       .  S
C516        C517   1.413       .  A
C516        C519   1.499       .  S
C517        C518   1.411       .  A
C517        H529   1.082       .  S
C518        H530   1.083       .  S
C519        C520   1.350       .  D
C519        H531   1.084       .  S
C520        C521   1.502       .  S
C520        H532   1.085       .  S
C521        C522   1.403       .  A
C521        C526   1.414       .  A
C522        C523   1.399       .  A
C522        H533   1.083       .  S
C523        C524   1.410       .  A
C523        H534   1.083       .  S
C524        C525   1.407       .  A
C525        C526   1.409       .  A
C525        H535   1.083       .  S
C526        H536   1.080       .  S
C537        C538   1.406       .  A
C537        C542   1.405       .  A
C538        C539   1.395       .  A
C538        H551   1.083       .  S
C539        C540   1.401       .  A
C539        H552   1.084       .  S
C540        C541   1.408       .  A
C540        C543   1.482   1_556  S
C541        C542   1.398       .  A
C541        H553   1.081       .  S
C542        H554   1.083       .  S
C543        C544   1.345       .  D
C543        H555   1.087       .  S
C544        C545   1.479       .  S
C544        H556   1.085   1_554  S
C545        C546   1.400       .  A
C545        C550   1.408       .  A
C546        C547   1.395       .  A
C546        H557   1.084       .  S
C547        C548   1.405       .  A
C547        H558   1.083       .  S
C548        C549   1.403       .  A
C549        C550   1.398       .  A
C549        H559   1.083       .  S
C550        H560   1.082       .  S
C561        C562   1.406       .  A
C561        C566   1.408       .  A
C562        C563   1.406       .  A
C562        H575   1.083       .  S
C563        C564   1.407       .  A
C563        H576   1.083       .  S
C564        C565   1.404       .  A
C564        C567   1.489       .  S
C565        C566   1.391       .  A
C565        H577   1.082       .  S
C566        H578   1.083       .  S
C567        C568   1.351       .  D
C567        H579   1.084       .  S
C568        C569   1.488       .  S
C568        H580   1.086       .  S
C569        C570   1.404       .  A
C569        C574   1.407       .  A
C570        C571   1.397       .  A
C570        H581   1.084       .  S
C571        C572   1.405       .  A
C571        H582   1.083       .  S
C572        C573   1.408       .  A
C573        C574   1.402       .  A
C573        H583   1.083       .  S
C574        H584   1.081       .  S
C585        C586   1.409       .  A
C585        C590   1.405       .  A
C586        C587   1.402       .  A
C586        H599   1.083       .  S
C587        C588   1.402       .  A
C587        H600   1.083       .  S
C588        C589   1.406       .  A
C588        C591   1.485       .  S
C589        C590   1.396       .  A
C589        H601   1.083       .  S
C590        H602   1.083       .  S
C591        C592   1.348       .  D
C591        H603   1.084   1_455  S
C592        C593   1.488   1_455  S
C592        H604   1.087       .  S
C593        C594   1.403       .  A
C593        C598   1.411       .  A
C594        C595   1.392       .  A
C594        H605   1.084       .  S
C595        C596   1.402       .  A
C595        H606   1.084       .  S
C596        C597   1.405       .  A
C597        C598   1.405       .  A
C597        H607   1.083       .  S
C598        H608   1.080       .  S
C609        C610   1.406       .  A
C609        C614   1.404       .  A
C610        C611   1.398       .  A
C610        H623   1.083       .  S
C611        C612   1.405       .  A
C611        H624   1.084       .  S
C612        C613   1.411       .  A
C612        C615   1.495       .  S
C613        C614   1.400       .  A
C613        H625   1.079       .  S
C614        H626   1.083       .  S
C615        C616   1.349   1_565  D
C615        H627   1.085       .  S
C616        C617   1.491       .  S
C616        H628   1.082       .  S
C617        C618   1.404       .  A
C617        C622   1.409       .  A
C618        C619   1.398       .  A
C618        H629   1.083       .  S
C619        C620   1.406       .  A
C619        H630   1.083       .  S
C620        C621   1.407       .  A
C621        C622   1.399       .  A
C621        H631   1.083       .  S
C622        H632   1.081       .  S
C633        C634   1.406       .  A
C633        C638   1.410       .  A
C634        C635   1.405       .  A
C634        H647   1.083       .  S
C635        C636   1.408       .  A
C635        H648   1.083       .  S
C636        C637   1.408       .  A
C636        C639   1.501       .  S
C637        C638   1.402       .  A
C637        H649   1.080       .  S
C638        H650   1.083       .  S
C639        C640   1.356       .  D
C639        H651   1.084       .  S
C640        C641   1.501       .  S
C640        H652   1.084       .  S
C641        C642   1.408       .  A
C641        C646   1.408       .  A
C642        C643   1.405       .  A
C642        H653   1.083       .  S
C643        C644   1.406       .  A
C643        H654   1.083       .  S
C644        C645   1.410       .  A
C645        C646   1.403       .  A
C645        H655   1.083       .  S
C646        H656   1.080       .  S
C657        C658   1.406       .  A
C657        C662   1.404       .  A
C658        C659   1.396       .  A
C658        H671   1.083       .  S
C659        C660   1.401       .  A
C659        H672   1.084   1_556  S
C660        C661   1.408       .  A
C660        C663   1.482   1_556  S
C661        C662   1.399       .  A
C661        H673   1.082       .  S
C662        H674   1.083       .  S
C663        C664   1.346       .  D
C663        H675   1.086       .  S
C664        C665   1.481       .  S
C664        H676   1.086   1_554  S
C665        C666   1.401       .  A
C665        C670   1.408       .  A
C666        C667   1.395       .  A
C666        H677   1.083       .  S
C667        C668   1.405       .  A
C667        H678   1.084       .  S
C668        C669   1.403       .  A
C669        C670   1.400       .  A
C669        H679   1.083       .  S
C670        H680   1.082       .  S
C681        C682   1.409       .  A
C681        C686   1.406       .  A
C682        C683   1.401       .  A
C682        H695   1.083       .  S
C683        C684   1.402       .  A
C683        H696   1.083       .  S
C684        C685   1.407       .  A
C684        C687   1.486       .  S
C685        C686   1.397       .  A
C685        H697   1.083       .  S
C686        H698   1.083       .  S
C687        C688   1.348       .  D
C687        H699   1.083       .  S
C688        C689   1.490       .  S
C688        H700   1.087       .  S
C689        C690   1.404       .  A
C689        C694   1.411   1_655  A
C690        C691   1.394   1_655  A
C690        H701   1.084       .  S
C691        C692   1.402       .  A
C691        H702   1.084       .  S
C692        C693   1.404       .  A
C693        C694   1.404       .  A
C693        H703   1.083       .  S
C694        H704   1.080       .  S
C705        C706   1.408       .  A
C705        C710   1.407       .  A
C706        C707   1.404       .  A
C706        H719   1.083       .  S
C707        C708   1.404       .  A
C707        H720   1.083       .  S
C708        C709   1.406       .  A
C708        C711   1.489       .  S
C709        C710   1.395       .  A
C709        H721   1.082       .  S
C710        H722   1.083       .  S
C711        C712   1.349       .  D
C711        H723   1.084       .  S
C712        C713   1.491       .  S
C712        H724   1.087       .  S
C713        C714   1.404       .  A
C713        C718   1.411       .  A
C714        C715   1.394       .  A
C714        H725   1.084       .  S
C715        C716   1.403       .  A
C715        H726   1.084       .  S
C716        C717   1.405       .  A
C717        C718   1.405       .  A
C717        H727   1.083       .  S
C718        H728   1.080       .  S
C729        C730   1.406       .  A
C729        C734   1.409       .  A
C730        C731   1.404       .  A
C730        H743   1.083       .  S
C731        C732   1.407       .  A
C731        H744   1.083       .  S
C732        C733   1.407       .  A
C732        C735   1.496       .  S
C733        C734   1.401       .  A
C733        H745   1.081       .  S
C734        H746   1.083       .  S
C735        C736   1.354   1_556  D
C735        H747   1.085       .  S
C736        C737   1.496       .  S
C736        H748   1.084       .  S
C737        C738   1.407       .  A
C737        C742   1.407       .  A
C738        C739   1.403       .  A
C738        H749   1.083       .  S
C739        C740   1.406       .  A
C739        H750   1.083       .  S
C740        C741   1.409       .  A
C741        C742   1.401       .  A
C741        H751   1.083       .  S
C742        H752   1.082       .  S
