geometry optimzed in LAMMPS
_audit_creation_date              2020-11-30 
_audit_creation_method            'lammps2cif' 
_symmetry_space_group_name_H-M    'P1' 
_symmetry_Int_Tables_number       1 
_symmetry_cell_setting            triclinic 
loop_ 
_symmetry_equiv_pos_as_xyz 
  x,y,z 
_cell_length_a                    27.447769341923085 
_cell_length_b                    47.727142025739916 
_cell_length_c                    27.964307462599063 
_cell_angle_alpha                 89.99985211588913 
_cell_angle_beta                  100.35238402764664 
_cell_angle_gamma                 89.99874214927267 
loop_ 
_atom_site_label 
_atom_site_type_symbol 
_atom_site_fract_x 
_atom_site_fract_y 
_atom_site_fract_z 
_atom_site_charge 
Fe1        Fe  0.27646971  0.32023819  0.38154263     1.65780
Fe2        Fe  0.16070292  0.31510067  0.31885486     1.73250
Fe3        Fe  0.20168988  0.37497751  0.37987641     1.54420
O4          O  0.24063533  0.36822122  0.45069408    -0.83050
O5          O  0.15248954  0.34452934  0.26716204    -0.81350
O6          O  0.26629915  0.32357222  0.45236802    -0.85550
O7          O  0.31538947  0.35805940  0.38878784    -0.80410
O8          O  0.14003526  0.36178870  0.40375133    -0.82180
O9          O  0.21211480  0.29666640  0.28110441    -0.84930
C10         C  0.30723996  0.38319539  0.37437991     0.95840
C11         C  0.25648671  0.34591069  0.47365010     1.03280
O12         O  0.21269305  0.33704522  0.35978672    -1.13910
O13         O  0.16648854  0.28231208  0.36809341    -0.76340
O14         O  0.24842066  0.27998590  0.37863504    -0.79830
O15         O  0.26383434  0.39183278  0.35823921    -0.80520
C16         C  0.20648611  0.26835943  0.37685306     0.94740
O17         O  0.28481209  0.31718179  0.30948825    -0.78470
O18         O  0.10125926  0.33452104  0.34515440    -0.83670
C19         C  0.14709438  0.37052119  0.27162613     0.97370
C20         C  0.10104814  0.35455192  0.37535242     1.03280
O21         O  0.16077552  0.38405272  0.31127054    -0.79310
C22         C  0.25419339  0.30601436  0.27493273     1.01580
Fe23       Fe  0.24413497  0.32025052  0.11895871     1.65780
Fe24       Fe  0.35991257  0.31508912  0.18162687     1.73250
Fe25       Fe  0.31894179  0.37497536  0.12060765     1.54420
O26         O  0.27999449  0.36822077  0.04979202    -0.83050
O27         O  0.36816787  0.34452145  0.23331528    -0.81350
O28         O  0.25429678  0.32357880  0.04812858    -0.85550
O29         O  0.20523217  0.35807658  0.11171305    -0.80410
O30         O  0.38059197  0.36177163  0.09673388    -0.82180
O31         O  0.30850053  0.29667246  0.21939666    -0.84930
C32         C  0.21338761  0.38321384  0.12610708     0.95840
C33         C  0.26412468  0.34591241  0.02684142     1.03280
O34         O  0.30792463  0.33704503  0.14070408    -1.13910
O35         O  0.35408379  0.28229171  0.13239996    -0.76340
O36         O  0.27215042  0.27999321  0.12186861    -0.79830
O37         O  0.25679810  0.39184826  0.14223738    -0.80520
C38         C  0.31407181  0.26835126  0.12365769     0.94740
O39         O  0.23580440  0.31719547  0.19101797    -0.78470
O40         O  0.41936696  0.33449188  0.15531258    -0.83670
C41         C  0.37355365  0.37051423  0.22885265     0.97360
C42         C  0.41958021  0.35453012  0.12512840     1.03280
O43         O  0.35985971  0.38404762  0.18921179    -0.79310
C44         C  0.26642052  0.30601953  0.22556837     1.01580
Fe45       Fe  0.02646759  0.43564924  0.38154248     1.65780
Fe46       Fe  0.41070035  0.44078819  0.31885318     1.73250
Fe47       Fe  0.45169030  0.38091067  0.37987550     1.54420
O48         O  0.01383759  0.36405529  0.35824275    -0.83050
O49         O  0.35125592  0.42136720  0.34514998    -0.81350
O50         O  0.06539017  0.39782845  0.38879024    -0.85550
O51         O  0.01629717  0.43231534  0.45236794    -0.80410
O52         O  0.41078150  0.37183571  0.31126750    -0.82180
O53         O  0.41648502  0.47357735  0.36809150    -0.84930
C54         C  0.50648355  0.40997737  0.47365031     0.95840
C55         C  0.05724230  0.37269242  0.37438420     1.03280
O56         O  0.46269137  0.41884308  0.35978640    -1.13910
O57         O  0.46211162  0.45922307  0.28110533    -0.76340
O58         O  0.03480897  0.43870545  0.30948729    -0.79900
O59         O  0.49063114  0.38766729  0.45069471    -0.80520
C60         C  0.50418936  0.44987381  0.27493233     0.94740
O61         O  0.49841755  0.47590130  0.37863486    -0.78470
O62         O  0.40249004  0.41135968  0.26715952    -0.83670
C63         C  0.35104520  0.40133562  0.37534713     0.97360
C64         C  0.39709955  0.38536744  0.27162290     1.03280
O65         O  0.39003225  0.39409848  0.40374666    -0.79310
C66         C  0.45648331  0.48752877  0.37685317     1.01580
Fe67       Fe  0.99412935  0.43563771  0.11895860     1.65780
Fe68       Fe  0.10990521  0.44079770  0.18162864     1.73250
Fe69       Fe  0.06894056  0.38091254  0.12060920     1.54410
O70         O  0.50679732  0.36403950  0.14223607    -0.83050
O71         O  0.16936275  0.42139277  0.15532054    -0.81350
O72         O  0.45522863  0.39781165  0.11171272    -0.85550
O73         O  0.50429102  0.43230920  0.04812831    -0.80410
O74         O  0.10985631  0.37184080  0.18921498    -0.82180
O75         O  0.10407863  0.47359303  0.13239822    -0.84930
C76         C  0.01412164  0.40997571  0.02684167     0.95840
C77         C  0.46338639  0.37267388  0.12610482     1.03280
O78         O  0.05791963  0.41884256  0.14070454    -1.13910
O79         O  0.05849111  0.45921750  0.21939277    -0.76340
O80         O  0.98579859  0.43869217  0.19101807    -0.79830
O81         O  0.02999494  0.38766757  0.04979267    -0.80520
C82         C  0.01641404  0.44986880  0.22556723     0.94740
O83         O  0.02214529  0.47589498  0.12186895    -0.78470
O84         O  0.11815515  0.41136653  0.23331890    -0.83670
C85         C  0.16957902  0.40135656  0.12513331     0.97370
C86         C  0.12354580  0.38537406  0.22885628     1.03280
O87         O  0.13059174  0.39411565  0.09673774    -0.79310
C88         C  0.06406755  0.48753533  0.12365787     1.01580
Fe89       Fe  0.27640422  0.18563699  0.38155945     1.65780
Fe90       Fe  0.16062249  0.19079900  0.31890137     1.73250
Fe91       Fe  0.20159844  0.13091211  0.37991620     1.54410
O92         O  0.26374072  0.11403946  0.35828508    -0.83050
O93         O  0.10116996  0.17139525  0.34521838    -0.81350
O94         O  0.31530784  0.14781148  0.38880370    -0.85550
O95         O  0.26625057  0.18230860  0.45239202    -0.80410
O96         O  0.16068330  0.12184043  0.31131184    -0.82180
O97         O  0.16645603  0.22359557  0.36813031    -0.84930
C98         C  0.25642141  0.15997555  0.47368032     0.95840
C99         C  0.30715122  0.12267367  0.37441403     1.03280
O100        O  0.21261314  0.16884279  0.35982037    -1.13910
O101        O  0.21202989  0.20921630  0.28112692    -0.76340
O102        O  0.28472588  0.18869129  0.30949792    -0.79830
O103        O  0.24054688  0.13766751  0.45073110    -0.80520
C104        C  0.25410751  0.19986811  0.27495037     0.94740
O105        O  0.24838898  0.22589428  0.37865148    -0.78470
O106        O  0.15236542  0.16136803  0.26721188    -0.83670
C107        C  0.10095747  0.15135631  0.37540147     0.97360
C108        C  0.14698847  0.13537449  0.27167197     1.03280
O109        O  0.13994717  0.14411291  0.40379203    -0.79310
C110        C  0.20646826  0.23753613  0.37686775     1.01580
Fe111      Fe  0.24406713  0.18565002  0.11897586     1.65780
Fe112      Fe  0.35982811  0.19078743  0.18167808     1.73250
Fe113      Fe  0.31885115  0.13091181  0.12064971     1.54410
O114        O  0.25670264  0.11405502  0.14227666    -0.83050
O115        O  0.41927877  0.17136526  0.15539182    -0.81350
O116        O  0.20514787  0.14782858  0.11172677    -0.85550
O117        O  0.25424491  0.18231613  0.04815260    -0.80410
O118        O  0.35975933  0.12183690  0.18925965    -0.82180
O119        O  0.35405130  0.22357507  0.13243800    -0.84930
C120        C  0.26406042  0.15997792  0.02687167     0.95840
C121        C  0.21329726  0.12269238  0.12613387     1.03280
O122        O  0.30784274  0.16884328  0.14073884    -1.13910
O123        O  0.30840935  0.20922511  0.21941441    -0.76340
O124        O  0.23571630  0.18870643  0.19102885    -0.79830
O125        O  0.27991374  0.13766803  0.04982872    -0.80520
C126        C  0.26633238  0.19987503  0.22558533     0.94740
O127        O  0.27211816  0.22590188  0.12188548    -0.78470
O128        O  0.36802939  0.16135878  0.23337229    -0.83670
C129        C  0.41949383  0.15133716  0.12518922     0.97360
C130        C  0.37343394  0.13536766  0.22890620     1.03280
O131        O  0.38050936  0.14410289  0.09678407    -0.79310
C132        C  0.31405390  0.23752795  0.12367256     1.01580
Fe133      Fe  0.02640663  0.07025018  0.38157868     1.65780
Fe134      Fe  0.41063512  0.06509047  0.31889825     1.73250
Fe135      Fe  0.45159364  0.12497493  0.37992298     1.54410
O136        O  0.49053825  0.11822072  0.45074010    -0.83050
O137        O  0.40238750  0.09452316  0.26720960    -0.81350
O138        O  0.01623717  0.07357840  0.45240654    -0.85550
O139        O  0.06530609  0.10807690  0.38882587    -0.80410
O140        O  0.38994360  0.11176828  0.40379202    -0.82180
O141        O  0.46205434  0.04667164  0.28113873    -0.84930
C142        C  0.05714928  0.13321416  0.37442978     0.95840
C143        C  0.00640801  0.09591240  0.47369221     1.03280
O144        O  0.46261759  0.08704538  0.35982664    -1.13910
O145        O  0.41645681  0.03229407  0.36812621    -0.76340
O146        O  0.49839070  0.02999282  0.37866641    -0.79830
O147        O  0.01373820  0.14184878  0.35829785    -0.80520
C148        C  0.45646791  0.01835213  0.37687187     0.94740
O149        O  0.03474666  0.06719511  0.30952167    -0.78470
O150        O  0.35117516  0.08449412  0.34520343    -0.83670
C151        C  0.39698816  0.12051486  0.27167485     0.97360
C152        C  0.35095785  0.10452936  0.37539226     1.03280
O153        O  0.41067554  0.13404732  0.31131743    -0.79310
C154        C  0.50413393  0.05601926  0.27496951     1.01580
Fe155      Fe  0.99407301  0.07023965  0.11899493     1.65780
Fe156      Fe  0.10984600  0.06509960  0.18166971     1.73250
Fe157      Fe  0.06884795  0.12497849  0.12065346     1.54420
O158        O  0.02989899  0.11822193  0.04983769    -0.83050
O159        O  0.11806864  0.09452817  0.23336168    -0.81350
O160        O  0.00423558  0.07357342  0.04816726    -0.85550
O161        O  0.45515102  0.10806054  0.11175147    -0.80410
O162        O  0.13050221  0.11179180  0.09677348    -0.82180
O163        O  0.05844087  0.04666869  0.21943174    -0.84930
C164        C  0.46329957  0.13319645  0.12615762     0.95840
C165        C  0.01404661  0.09591144  0.02688348     1.03280
O166        O  0.05785082  0.08704553  0.14074364    -1.13910
O167        O  0.10405173  0.03230951  0.13243289    -0.76340
O168        O  0.02212010  0.02998690  0.12190029    -0.79830
O169        O  0.00670490  0.14183353  0.14229582    -0.80520
C170        C  0.06405288  0.01835869  0.12367679     0.94740
O171        O  0.48573993  0.06718364  0.19105135    -0.78470
O172        O  0.16928460  0.08451819  0.15536006    -0.83670
C173        C  0.12344979  0.12052113  0.22890023     0.97370
C174        C  0.16949183  0.10455226  0.12516702     1.03280
O175        O  0.10976258  0.13405355  0.18925749    -0.79310
C176        C  0.01636156  0.05601607  0.22560531     1.01580
Fe177      Fe  0.27646969  0.32023818  0.88154263     1.65780
Fe178      Fe  0.16070291  0.31510066  0.81885486     1.73250
Fe179      Fe  0.20168987  0.37497750  0.87987641     1.54420
O180        O  0.24063532  0.36822121  0.95069408    -0.83050
O181        O  0.15248952  0.34452934  0.76716204    -0.81350
O182        O  0.26629914  0.32357221  0.95236802    -0.85550
O183        O  0.31538946  0.35805940  0.88878783    -0.80410
O184        O  0.14003524  0.36178869  0.90375133    -0.82180
O185        O  0.21211478  0.29666640  0.78110440    -0.84930
C186        C  0.30723994  0.38319539  0.87437990     0.95840
C187        C  0.25648671  0.34591069  0.97365010     1.03280
O188        O  0.21269303  0.33704522  0.85978671    -1.13910
O189        O  0.16648853  0.28231207  0.86809340    -0.76340
O190        O  0.24842065  0.27998590  0.87863504    -0.79830
O191        O  0.26383432  0.39183278  0.85823922    -0.80520
C192        C  0.20648610  0.26835943  0.87685305     0.94740
O193        O  0.28481207  0.31718178  0.80948824    -0.78470
O194        O  0.10125924  0.33452104  0.84515440    -0.83670
C195        C  0.14709436  0.37052119  0.77162613     0.97370
C196        C  0.10104813  0.35455192  0.87535242     1.03280
O197        O  0.16077550  0.38405272  0.81127054    -0.79310
C198        C  0.25419337  0.30601435  0.77493272     1.01580
Fe199      Fe  0.24413495  0.32025052  0.61895871     1.65780
Fe200      Fe  0.35991255  0.31508912  0.68162686     1.73250
Fe201      Fe  0.31894177  0.37497536  0.62060765     1.54420
O202        O  0.27999447  0.36822078  0.54979202    -0.83050
O203        O  0.36816786  0.34452144  0.73331528    -0.81350
O204        O  0.25429678  0.32357881  0.54812858    -0.85550
O205        O  0.20523215  0.35807658  0.61171304    -0.80410
O206        O  0.38059195  0.36177163  0.59673388    -0.82180
O207        O  0.30850051  0.29667246  0.71939665    -0.84930
C208        C  0.21338759  0.38321384  0.62610708     0.95840
C209        C  0.26412467  0.34591241  0.52684143     1.03280
O210        O  0.30792461  0.33704503  0.64070408    -1.13910
O211        O  0.35408377  0.28229171  0.63239995    -0.76340
O212        O  0.27215041  0.27999320  0.62186860    -0.79830
O213        O  0.25679808  0.39184826  0.64223740    -0.80520
C214        C  0.31407180  0.26835126  0.62365768     0.94740
O215        O  0.23580438  0.31719546  0.69101796    -0.78470
O216        O  0.41936694  0.33449188  0.65531258    -0.83670
C217        C  0.37355363  0.37051423  0.72885265     0.97360
C218        C  0.41958019  0.35453013  0.62512840     1.03280
O219        O  0.35985969  0.38404761  0.68921180    -0.79310
C220        C  0.26642050  0.30601953  0.72556836     1.01580
Fe221      Fe  0.02646758  0.43564924  0.88154248     1.65780
Fe222      Fe  0.41070033  0.44078819  0.81885318     1.73250
Fe223      Fe  0.45169028  0.38091067  0.87987551     1.54420
O224        O  0.01383757  0.36405529  0.85824275    -0.83050
O225        O  0.35125590  0.42136720  0.84514999    -0.81350
O226        O  0.06539016  0.39782844  0.88879023    -0.85550
O227        O  0.01629716  0.43231534  0.95236794    -0.80410
O228        O  0.41078148  0.37183571  0.81126751    -0.82180
O229        O  0.41648501  0.47357735  0.86809150    -0.84930
C230        C  0.50648355  0.40997736  0.97365031     0.95840
C231        C  0.05724228  0.37269242  0.87438420     1.03280
O232        O  0.46269136  0.41884308  0.85978640    -1.13910
O233        O  0.46211160  0.45922307  0.78110533    -0.76340
O234        O  0.03480895  0.43870545  0.80948728    -0.79900
O235        O  0.49063113  0.38766728  0.95069472    -0.80520
C236        C  0.50418934  0.44987381  0.77493233     0.94740
O237        O  0.49841754  0.47590130  0.87863486    -0.78470
O238        O  0.40249002  0.41135968  0.76715952    -0.83670
C239        C  0.35104519  0.40133562  0.87534713     0.97360
C240        C  0.39709953  0.38536744  0.77162290     1.03280
O241        O  0.39003224  0.39409848  0.90374666    -0.79310
C242        C  0.45648330  0.48752877  0.87685317     1.01580
Fe243      Fe  0.99412934  0.43563771  0.61895860     1.65780
Fe244      Fe  0.10990519  0.44079770  0.68162865     1.73250
Fe245      Fe  0.06894055  0.38091254  0.62060920     1.54410
O246        O  0.50679730  0.36403950  0.64223607    -0.83050
O247        O  0.16936273  0.42139277  0.65532055    -0.81350
O248        O  0.45522861  0.39781165  0.61171272    -0.85550
O249        O  0.50429102  0.43230920  0.54812830    -0.80410
O250        O  0.10985629  0.37184080  0.68921498    -0.82180
O251        O  0.10407862  0.47359303  0.63239822    -0.84930
C252        C  0.01412163  0.40997571  0.52684167     0.95840
C253        C  0.46338637  0.37267388  0.62610481     1.03280
O254        O  0.05791961  0.41884256  0.64070454    -1.13910
O255        O  0.05849109  0.45921750  0.71939277    -0.76340
O256        O  0.98579857  0.43869217  0.69101807    -0.79830
O257        O  0.02999492  0.38766757  0.54979267    -0.80520
C258        C  0.01641402  0.44986879  0.72556723     0.94740
O259        O  0.02214528  0.47589498  0.62186895    -0.78470
O260        O  0.11815512  0.41136653  0.73331891    -0.83670
C261        C  0.16957900  0.40135656  0.62513332     0.97370
C262        C  0.12354578  0.38537405  0.72885628     1.03280
O263        O  0.13059172  0.39411564  0.59673775    -0.79310
C264        C  0.06406754  0.48753533  0.62365788     1.01580
Fe265      Fe  0.27640422  0.18563699  0.88155945     1.65780
Fe266      Fe  0.16062249  0.19079900  0.81890137     1.73250
Fe267      Fe  0.20159844  0.13091211  0.87991620     1.54410
O268        O  0.26374072  0.11403946  0.85828509    -0.83050
O269        O  0.10116996  0.17139525  0.84521837    -0.81350
O270        O  0.31530784  0.14781148  0.88880370    -0.85550
O271        O  0.26625056  0.18230860  0.95239202    -0.80410
O272        O  0.16068330  0.12184043  0.81131184    -0.82180
O273        O  0.16645602  0.22359557  0.86813030    -0.84930
C274        C  0.25642141  0.15997555  0.97368033     0.95840
C275        C  0.30715122  0.12267367  0.87441403     1.03280
O276        O  0.21261314  0.16884279  0.85982037    -1.13910
O277        O  0.21202989  0.20921630  0.78112691    -0.76340
O278        O  0.28472588  0.18869129  0.80949792    -0.79830
O279        O  0.24054688  0.13766751  0.95073110    -0.80520
C280        C  0.25410751  0.19986810  0.77495037     0.94740
O281        O  0.24838897  0.22589428  0.87865147    -0.78470
O282        O  0.15236542  0.16136803  0.76721188    -0.83670
C283        C  0.10095747  0.15135631  0.87540146     0.97360
C284        C  0.14698847  0.13537448  0.77167197     1.03280
O285        O  0.13994717  0.14411291  0.90379202    -0.79310
C286        C  0.20646825  0.23753613  0.87686775     1.01580
Fe287      Fe  0.24406713  0.18565002  0.61897586     1.65780
Fe288      Fe  0.35982810  0.19078743  0.68167807     1.73250
Fe289      Fe  0.31885115  0.13091181  0.62064971     1.54410
O290        O  0.25670264  0.11405502  0.64227666    -0.83050
O291        O  0.41927877  0.17136527  0.65539182    -0.81350
O292        O  0.20514787  0.14782857  0.61172677    -0.85550
O293        O  0.25424491  0.18231613  0.54815260    -0.80410
O294        O  0.35975933  0.12183690  0.68925965    -0.82180
O295        O  0.35405129  0.22357508  0.63243800    -0.84930
C296        C  0.26406042  0.15997792  0.52687167     0.95840
C297        C  0.21329726  0.12269237  0.62613387     1.03280
O298        O  0.30784274  0.16884328  0.64073884    -1.13910
O299        O  0.30840935  0.20922511  0.71941441    -0.76340
O300        O  0.23571630  0.18870643  0.69102885    -0.79830
O301        O  0.27991374  0.13766803  0.54982872    -0.80520
C302        C  0.26633238  0.19987503  0.72558533     0.94740
O303        O  0.27211815  0.22590188  0.62188548    -0.78470
O304        O  0.36802940  0.16135878  0.73337228    -0.83670
C305        C  0.41949383  0.15133716  0.62518922     0.97360
C306        C  0.37343394  0.13536766  0.72890620     1.03280
O307        O  0.38050936  0.14410289  0.59678407    -0.79310
C308        C  0.31405389  0.23752795  0.62367255     1.01580
Fe309      Fe  0.02640663  0.07025018  0.88157869     1.65780
Fe310      Fe  0.41063512  0.06509046  0.81889825     1.73250
Fe311      Fe  0.45159364  0.12497493  0.87992298     1.54410
O312        O  0.49053825  0.11822072  0.95074009    -0.83050
O313        O  0.40238750  0.09452316  0.76720960    -0.81350
O314        O  0.01623717  0.07357840  0.95240654    -0.85550
O315        O  0.06530609  0.10807690  0.88882587    -0.80410
O316        O  0.38994359  0.11176828  0.90379202    -0.82180
O317        O  0.46205433  0.04667164  0.78113873    -0.84930
C318        C  0.05714928  0.13321416  0.87442977     0.95840
C319        C  0.00640801  0.09591240  0.97369221     1.03280
O320        O  0.46261759  0.08704538  0.85982664    -1.13910
O321        O  0.41645681  0.03229407  0.86812621    -0.76340
O322        O  0.49839069  0.02999282  0.87866641    -0.79830
O323        O  0.01373820  0.14184878  0.85829784    -0.80520
C324        C  0.45646790  0.01835213  0.87687187     0.94740
O325        O  0.03474665  0.06719511  0.80952167    -0.78470
O326        O  0.35117516  0.08449412  0.84520343    -0.83670
C327        C  0.39698816  0.12051486  0.77167485     0.97360
C328        C  0.35095785  0.10452936  0.87539226     1.03280
O329        O  0.41067554  0.13404732  0.81131743    -0.79310
C330        C  0.50413392  0.05601926  0.77496951     1.01580
Fe331      Fe  0.99407301  0.07023965  0.61899493     1.65780
Fe332      Fe  0.10984600  0.06509960  0.68166971     1.73250
Fe333      Fe  0.06884796  0.12497849  0.62065346     1.54420
O334        O  0.02989899  0.11822193  0.54983769    -0.83050
O335        O  0.11806864  0.09452817  0.73336168    -0.81350
O336        O  0.00423558  0.07357342  0.54816726    -0.85550
O337        O  0.45515102  0.10806054  0.61175147    -0.80410
O338        O  0.13050221  0.11179179  0.59677348    -0.82180
O339        O  0.05844087  0.04666869  0.71943174    -0.84930
C340        C  0.46329957  0.13319645  0.62615762     0.95840
C341        C  0.01404661  0.09591144  0.52688349     1.03280
O342        O  0.05785082  0.08704552  0.64074364    -1.13910
O343        O  0.10405173  0.03230951  0.63243289    -0.76340
O344        O  0.02212010  0.02998690  0.62190029    -0.79830
O345        O  0.00670490  0.14183353  0.64229582    -0.80520
C346        C  0.06405288  0.01835868  0.62367679     0.94740
O347        O  0.48573993  0.06718364  0.69105135    -0.78470
O348        O  0.16928460  0.08451819  0.65536006    -0.83670
C349        C  0.12344979  0.12052112  0.72890023     0.97370
C350        C  0.16949183  0.10455226  0.62516702     1.03280
O351        O  0.10976258  0.13405355  0.68925749    -0.79310
C352        C  0.01636156  0.05601607  0.72560532     1.01580
Fe353      Fe  0.27646971  0.82023819  0.38154263     1.65780
Fe354      Fe  0.16070292  0.81510067  0.31885486     1.73250
Fe355      Fe  0.20168989  0.87497751  0.37987641     1.54420
O356        O  0.24063533  0.86822122  0.45069408    -0.83050
O357        O  0.15248954  0.84452934  0.26716204    -0.81350
O358        O  0.26629915  0.82357222  0.45236802    -0.85550
O359        O  0.31538947  0.85805940  0.38878784    -0.80410
O360        O  0.14003526  0.86178870  0.40375133    -0.82180
O361        O  0.21211479  0.79666640  0.28110441    -0.84930
C362        C  0.30723996  0.88319539  0.37437991     0.95840
C363        C  0.25648671  0.84591069  0.47365010     1.03280
O364        O  0.21269305  0.83704522  0.35978672    -1.13910
O365        O  0.16648854  0.78231208  0.36809340    -0.76340
O366        O  0.24842066  0.77998590  0.37863504    -0.79830
O367        O  0.26383434  0.89183278  0.35823921    -0.80520
C368        C  0.20648611  0.76835943  0.37685306     0.94740
O369        O  0.28481209  0.81718179  0.30948825    -0.78470
O370        O  0.10125926  0.83452105  0.34515440    -0.83670
C371        C  0.14709438  0.87052119  0.27162613     0.97370
C372        C  0.10104814  0.85455193  0.37535242     1.03280
O373        O  0.16077552  0.88405272  0.31127054    -0.79310
C374        C  0.25419339  0.80601436  0.27493273     1.01580
Fe375      Fe  0.24413497  0.82025052  0.11895871     1.65780
Fe376      Fe  0.35991257  0.81508912  0.18162687     1.73250
Fe377      Fe  0.31894179  0.87497536  0.12060765     1.54420
O378        O  0.27999449  0.86822078  0.04979202    -0.83050
O379        O  0.36816787  0.84452145  0.23331528    -0.81350
O380        O  0.25429679  0.82357881  0.04812858    -0.85550
O381        O  0.20523217  0.85807658  0.11171304    -0.80410
O382        O  0.38059197  0.86177163  0.09673388    -0.82180
O383        O  0.30850052  0.79667246  0.21939665    -0.84930
C384        C  0.21338761  0.88321384  0.12610708     0.95840
C385        C  0.26412468  0.84591241  0.02684142     1.03280
O386        O  0.30792463  0.83704503  0.14070408    -1.13910
O387        O  0.35408379  0.78229171  0.13239996    -0.76340
O388        O  0.27215042  0.77999321  0.12186861    -0.79830
O389        O  0.25679809  0.89184826  0.14223739    -0.80520
C390        C  0.31407181  0.76835126  0.12365769     0.94740
O391        O  0.23580440  0.81719547  0.19101797    -0.78470
O392        O  0.41936696  0.83449188  0.15531258    -0.83670
C393        C  0.37355365  0.87051424  0.22885265     0.97360
C394        C  0.41958021  0.85453012  0.12512840     1.03280
O395        O  0.35985971  0.88404762  0.18921180    -0.79310
C396        C  0.26642052  0.80601953  0.22556837     1.01580
Fe397      Fe  0.02646759  0.93564924  0.38154248     1.65780
Fe398      Fe  0.41070035  0.94078819  0.31885318     1.73250
Fe399      Fe  0.45169030  0.88091067  0.37987550     1.54420
O400        O  0.01383759  0.86405530  0.35824274    -0.83050
O401        O  0.35125592  0.92136720  0.34514998    -0.81350
O402        O  0.06539017  0.89782845  0.38879023    -0.85550
O403        O  0.01629717  0.93231534  0.45236794    -0.80410
O404        O  0.41078150  0.87183571  0.31126751    -0.82180
O405        O  0.41648503  0.97357735  0.36809150    -0.84930
C406        C  0.50648355  0.90997737  0.47365031     0.95840
C407        C  0.05724230  0.87269243  0.37438420     1.03280
O408        O  0.46269138  0.91884308  0.35978640    -1.13910
O409        O  0.46211162  0.95922307  0.28110534    -0.76340
O410        O  0.03480897  0.93870545  0.30948728    -0.79900
O411        O  0.49063114  0.88766728  0.45069471    -0.80520
C412        C  0.50418936  0.94987381  0.27493233     0.94740
O413        O  0.49841756  0.97590130  0.37863486    -0.78470
O414        O  0.40249005  0.91135968  0.26715952    -0.83670
C415        C  0.35104521  0.90133562  0.37534713     0.97360
C416        C  0.39709955  0.88536744  0.27162290     1.03280
O417        O  0.39003226  0.89409848  0.40374666    -0.79310
C418        C  0.45648331  0.98752877  0.37685317     1.01580
Fe419      Fe  0.99412935  0.93563771  0.11895860     1.65780
Fe420      Fe  0.10990521  0.94079771  0.18162864     1.73250
Fe421      Fe  0.06894056  0.88091255  0.12060920     1.54410
O422        O  0.50679731  0.86403950  0.14223607    -0.83050
O423        O  0.16936275  0.92139278  0.15532054    -0.81350
O424        O  0.45522863  0.89781165  0.11171272    -0.85550
O425        O  0.50429103  0.93230920  0.04812831    -0.80410
O426        O  0.10985631  0.87184080  0.18921498    -0.82180
O427        O  0.10407863  0.97359304  0.13239822    -0.84930
C428        C  0.01412164  0.90997571  0.02684167     0.95840
C429        C  0.46338639  0.87267388  0.12610482     1.03280
O430        O  0.05791962  0.91884257  0.14070454    -1.13910
O431        O  0.05849111  0.95921750  0.21939277    -0.76340
O432        O  0.98579859  0.93869217  0.19101807    -0.79830
O433        O  0.02999494  0.88766757  0.04979267    -0.80520
C434        C  0.01641403  0.94986880  0.22556723     0.94740
O435        O  0.02214528  0.97589498  0.12186895    -0.78470
O436        O  0.11815514  0.91136653  0.23331890    -0.83670
C437        C  0.16957902  0.90135656  0.12513331     0.97370
C438        C  0.12354580  0.88537406  0.22885628     1.03280
O439        O  0.13059174  0.89411565  0.09673774    -0.79310
C440        C  0.06406754  0.98753533  0.12365787     1.01580
Fe441      Fe  0.27640423  0.68563699  0.38155945     1.65780
Fe442      Fe  0.16062249  0.69079900  0.31890137     1.73250
Fe443      Fe  0.20159845  0.63091211  0.37991620     1.54410
O444        O  0.26374073  0.61403947  0.35828508    -0.83050
O445        O  0.10116997  0.67139525  0.34521838    -0.81350
O446        O  0.31530784  0.64781148  0.38880370    -0.85550
O447        O  0.26625057  0.68230860  0.45239202    -0.80410
O448        O  0.16068330  0.62184043  0.31131184    -0.82180
O449        O  0.16645603  0.72359557  0.36813030    -0.84930
C450        C  0.25642142  0.65997555  0.47368032     0.95840
C451        C  0.30715122  0.62267367  0.37441403     1.03280
O452        O  0.21261315  0.66884279  0.35982037    -1.13910
O453        O  0.21202989  0.70921630  0.28112691    -0.76340
O454        O  0.28472589  0.68869129  0.30949792    -0.79830
O455        O  0.24054688  0.63766751  0.45073110    -0.80520
C456        C  0.25410752  0.69986811  0.27495037     0.94740
O457        O  0.24838898  0.72589428  0.37865148    -0.78470
O458        O  0.15236542  0.66136803  0.26721188    -0.83670
C459        C  0.10095747  0.65135631  0.37540146     0.97360
C460        C  0.14698848  0.63537449  0.27167197     1.03280
O461        O  0.13994718  0.64411291  0.40379202    -0.79310
C462        C  0.20646826  0.73753613  0.37686775     1.01580
Fe463      Fe  0.24406714  0.68565002  0.11897586     1.65780
Fe464      Fe  0.35982811  0.69078743  0.18167808     1.73250
Fe465      Fe  0.31885116  0.63091181  0.12064971     1.54410
O466        O  0.25670265  0.61405502  0.14227666    -0.83050
O467        O  0.41927878  0.67136527  0.15539182    -0.81350
O468        O  0.20514788  0.64782857  0.11172677    -0.85550
O469        O  0.25424492  0.68231613  0.04815260    -0.80410
O470        O  0.35975934  0.62183690  0.18925965    -0.82180
O471        O  0.35405130  0.72357508  0.13243800    -0.84930
C472        C  0.26406042  0.65997792  0.02687167     0.95840
C473        C  0.21329726  0.62269238  0.12613387     1.03280
O474        O  0.30784275  0.66884328  0.14073884    -1.13910
O475        O  0.30840935  0.70922511  0.21941441    -0.76340
O476        O  0.23571630  0.68870643  0.19102885    -0.79830
O477        O  0.27991374  0.63766804  0.04982872    -0.80520
C478        C  0.26633238  0.69987503  0.22558533     0.94740
O479        O  0.27211816  0.72590188  0.12188548    -0.78470
O480        O  0.36802940  0.66135878  0.23337228    -0.83670
C481        C  0.41949384  0.65133716  0.12518922     0.97360
C482        C  0.37343394  0.63536767  0.22890620     1.03280
O483        O  0.38050936  0.64410289  0.09678407    -0.79310
C484        C  0.31405390  0.73752795  0.12367255     1.01580
Fe485      Fe  0.02640664  0.57025018  0.38157868     1.65780
Fe486      Fe  0.41063513  0.56509047  0.31889825     1.73250
Fe487      Fe  0.45159365  0.62497493  0.37992298     1.54410
O488        O  0.49053825  0.61822072  0.45074010    -0.83050
O489        O  0.40238751  0.59452316  0.26720960    -0.81350
O490        O  0.01623718  0.57357840  0.45240654    -0.85550
O491        O  0.06530609  0.60807690  0.38882586    -0.80410
O492        O  0.38994360  0.61176829  0.40379202    -0.82180
O493        O  0.46205434  0.54667164  0.28113873    -0.84930
C494        C  0.05714929  0.63321416  0.37442978     0.95840
C495        C  0.00640801  0.59591240  0.47369221     1.03280
O496        O  0.46261760  0.58704538  0.35982664    -1.13910
O497        O  0.41645681  0.53229407  0.36812621    -0.76340
O498        O  0.49839070  0.52999282  0.37866641    -0.79830
O499        O  0.01373820  0.64184878  0.35829784    -0.80520
C500        C  0.45646791  0.51835214  0.37687187     0.94740
O501        O  0.03474666  0.56719511  0.30952167    -0.78470
O502        O  0.35117517  0.58449412  0.34520343    -0.83670
C503        C  0.39698816  0.62051486  0.27167485     0.97360
C504        C  0.35095786  0.60452936  0.37539226     1.03280
O505        O  0.41067555  0.63404732  0.31131743    -0.79310
C506        C  0.50413393  0.55601926  0.27496951     1.01580
Fe507      Fe  0.99407302  0.57023965  0.11899493     1.65780
Fe508      Fe  0.10984601  0.56509960  0.18166971     1.73250
Fe509      Fe  0.06884796  0.62497849  0.12065346     1.54420
O510        O  0.02989899  0.61822193  0.04983769    -0.83050
O511        O  0.11806865  0.59452817  0.23336168    -0.81350
O512        O  0.00423559  0.57357342  0.04816726    -0.85550
O513        O  0.45515102  0.60806054  0.11175147    -0.80410
O514        O  0.13050222  0.61179179  0.09677348    -0.82180
O515        O  0.05844088  0.54666869  0.21943174    -0.84930
C516        C  0.46329958  0.63319645  0.12615762     0.95840
C517        C  0.01404662  0.59591144  0.02688348     1.03280
O518        O  0.05785083  0.58704553  0.14074364    -1.13910
O519        O  0.10405174  0.53230951  0.13243289    -0.76340
O520        O  0.02212011  0.52998690  0.12190029    -0.79830
O521        O  0.00670491  0.64183353  0.14229582    -0.80520
C522        C  0.06405289  0.51835869  0.12367679     0.94740
O523        O  0.48573993  0.56718364  0.19105135    -0.78470
O524        O  0.16928460  0.58451819  0.15536006    -0.83670
C525        C  0.12344979  0.62052113  0.22890023     0.97370
C526        C  0.16949184  0.60455226  0.12516702     1.03280
O527        O  0.10976258  0.63405355  0.18925749    -0.79310
C528        C  0.01636157  0.55601607  0.22560532     1.01580
Fe529      Fe  0.27646970  0.82023819  0.88154263     1.65780
Fe530      Fe  0.16070291  0.81510067  0.81885486     1.73250
Fe531      Fe  0.20168988  0.87497750  0.87987641     1.54420
O532        O  0.24063533  0.86822122  0.95069408    -0.83050
O533        O  0.15248953  0.84452934  0.76716204    -0.81350
O534        O  0.26629914  0.82357221  0.95236802    -0.85550
O535        O  0.31538946  0.85805940  0.88878784    -0.80410
O536        O  0.14003525  0.86178870  0.90375133    -0.82180
O537        O  0.21211478  0.79666640  0.78110441    -0.84930
C538        C  0.30723995  0.88319539  0.87437990     0.95840
C539        C  0.25648671  0.84591069  0.97365010     1.03280
O540        O  0.21269304  0.83704522  0.85978672    -1.13910
O541        O  0.16648853  0.78231208  0.86809340    -0.76340
O542        O  0.24842065  0.77998590  0.87863504    -0.79830
O543        O  0.26383433  0.89183278  0.85823921    -0.80520
C544        C  0.20648610  0.76835943  0.87685305     0.94740
O545        O  0.28481208  0.81718178  0.80948824    -0.78470
O546        O  0.10125925  0.83452104  0.84515440    -0.83670
C547        C  0.14709437  0.87052119  0.77162613     0.97370
C548        C  0.10104814  0.85455192  0.87535242     1.03280
O549        O  0.16077551  0.88405272  0.81127054    -0.79310
C550        C  0.25419338  0.80601436  0.77493272     1.01580
Fe551      Fe  0.24413496  0.82025052  0.61895871     1.65780
Fe552      Fe  0.35991256  0.81508912  0.68162686     1.73250
Fe553      Fe  0.31894178  0.87497536  0.62060765     1.54420
O554        O  0.27999448  0.86822078  0.54979202    -0.83050
O555        O  0.36816786  0.84452145  0.73331528    -0.81350
O556        O  0.25429678  0.82357881  0.54812858    -0.85550
O557        O  0.20523216  0.85807658  0.61171304    -0.80410
O558        O  0.38059196  0.86177163  0.59673388    -0.82180
O559        O  0.30850051  0.79667246  0.71939665    -0.84930
C560        C  0.21338760  0.88321384  0.62610708     0.95840
C561        C  0.26412468  0.84591241  0.52684143     1.03280
O562        O  0.30792462  0.83704503  0.64070408    -1.13910
O563        O  0.35408378  0.78229171  0.63239995    -0.76340
O564        O  0.27215041  0.77999321  0.62186860    -0.79830
O565        O  0.25679808  0.89184826  0.64223739    -0.80520
C566        C  0.31407181  0.76835126  0.62365768     0.94740
O567        O  0.23580439  0.81719547  0.69101796    -0.78470
O568        O  0.41936695  0.83449188  0.65531258    -0.83670
C569        C  0.37355364  0.87051423  0.72885265     0.97360
C570        C  0.41958020  0.85453012  0.62512840     1.03280
O571        O  0.35985970  0.88404761  0.68921180    -0.79310
C572        C  0.26642051  0.80601953  0.72556836     1.01580
Fe573      Fe  0.02646758  0.93564924  0.88154248     1.65780
Fe574      Fe  0.41070034  0.94078819  0.81885318     1.73250
Fe575      Fe  0.45169029  0.88091067  0.87987551     1.54420
O576        O  0.01383758  0.86405529  0.85824275    -0.83050
O577        O  0.35125591  0.92136720  0.84514998    -0.81350
O578        O  0.06539017  0.89782845  0.88879023    -0.85550
O579        O  0.01629716  0.93231534  0.95236794    -0.80410
O580        O  0.41078149  0.87183571  0.81126751    -0.82180
O581        O  0.41648502  0.97357735  0.86809150    -0.84930
C582        C  0.50648355  0.90997737  0.97365031     0.95840
C583        C  0.05724229  0.87269242  0.87438420     1.03280
O584        O  0.46269137  0.91884308  0.85978640    -1.13910
O585        O  0.46211161  0.95922307  0.78110533    -0.76340
O586        O  0.03480896  0.93870545  0.80948728    -0.79900
O587        O  0.49063114  0.88766728  0.95069472    -0.80520
C588        C  0.50418935  0.94987381  0.77493233     0.94740
O589        O  0.49841755  0.97590130  0.87863486    -0.78470
O590        O  0.40249004  0.91135968  0.76715952    -0.83670
C591        C  0.35104520  0.90133562  0.87534713     0.97360
C592        C  0.39709954  0.88536744  0.77162290     1.03280
O593        O  0.39003225  0.89409848  0.90374666    -0.79310
C594        C  0.45648330  0.98752877  0.87685317     1.01580
Fe595      Fe  0.99412934  0.93563771  0.61895860     1.65780
Fe596      Fe  0.10990520  0.94079770  0.68162865     1.73250
Fe597      Fe  0.06894056  0.88091254  0.62060920     1.54410
O598        O  0.50679730  0.86403950  0.64223607    -0.83050
O599        O  0.16936274  0.92139277  0.65532055    -0.81350
O600        O  0.45522862  0.89781165  0.61171272    -0.85550
O601        O  0.50429102  0.93230920  0.54812830    -0.80410
O602        O  0.10985630  0.87184080  0.68921498    -0.82180
O603        O  0.10407863  0.97359303  0.63239822    -0.84930
C604        C  0.01412164  0.90997571  0.52684167     0.95840
C605        C  0.46338637  0.87267388  0.62610481     1.03280
O606        O  0.05791962  0.91884256  0.64070454    -1.13910
O607        O  0.05849110  0.95921750  0.71939277    -0.76340
O608        O  0.98579858  0.93869217  0.69101807    -0.79830
O609        O  0.02999493  0.88766757  0.54979267    -0.80520
C610        C  0.01641402  0.94986879  0.72556723     0.94740
O611        O  0.02214528  0.97589498  0.62186895    -0.78470
O612        O  0.11815513  0.91136653  0.73331890    -0.83670
C613        C  0.16957901  0.90135656  0.62513332     0.97370
C614        C  0.12354579  0.88537405  0.72885628     1.03280
O615        O  0.13059173  0.89411565  0.59673775    -0.79310
C616        C  0.06406754  0.98753533  0.62365788     1.01580
Fe617      Fe  0.27640422  0.68563699  0.88155945     1.65780
Fe618      Fe  0.16062249  0.69079900  0.81890137     1.73250
Fe619      Fe  0.20159845  0.63091211  0.87991620     1.54410
O620        O  0.26374073  0.61403947  0.85828508    -0.83050
O621        O  0.10116997  0.67139525  0.84521837    -0.81350
O622        O  0.31530784  0.64781148  0.88880370    -0.85550
O623        O  0.26625057  0.68230861  0.95239202    -0.80410
O624        O  0.16068330  0.62184043  0.81131184    -0.82180
O625        O  0.16645603  0.72359557  0.86813030    -0.84930
C626        C  0.25642141  0.65997555  0.97368033     0.95840
C627        C  0.30715122  0.62267367  0.87441403     1.03280
O628        O  0.21261314  0.66884279  0.85982037    -1.13910
O629        O  0.21202989  0.70921630  0.78112691    -0.76340
O630        O  0.28472588  0.68869129  0.80949792    -0.79830
O631        O  0.24054688  0.63766751  0.95073110    -0.80520
C632        C  0.25410752  0.69986810  0.77495037     0.94740
O633        O  0.24838897  0.72589428  0.87865148    -0.78470
O634        O  0.15236543  0.66136803  0.76721188    -0.83670
C635        C  0.10095747  0.65135631  0.87540146     0.97360
C636        C  0.14698848  0.63537448  0.77167197     1.03280
O637        O  0.13994718  0.64411291  0.90379202    -0.79310
C638        C  0.20646825  0.73753613  0.87686775     1.01580
Fe639      Fe  0.24406713  0.68565002  0.61897586     1.65780
Fe640      Fe  0.35982811  0.69078743  0.68167807     1.73250
Fe641      Fe  0.31885116  0.63091181  0.62064971     1.54410
O642        O  0.25670265  0.61405502  0.64227666    -0.83050
O643        O  0.41927877  0.67136527  0.65539182    -0.81350
O644        O  0.20514788  0.64782857  0.61172677    -0.85550
O645        O  0.25424491  0.68231613  0.54815260    -0.80410
O646        O  0.35975934  0.62183690  0.68925965    -0.82180
O647        O  0.35405129  0.72357508  0.63243800    -0.84930
C648        C  0.26406042  0.65997792  0.52687167     0.95840
C649        C  0.21329726  0.62269237  0.62613387     1.03280
O650        O  0.30784274  0.66884328  0.64073884    -1.13910
O651        O  0.30840935  0.70922511  0.71941441    -0.76340
O652        O  0.23571630  0.68870643  0.69102885    -0.79830
O653        O  0.27991374  0.63766803  0.54982872    -0.80520
C654        C  0.26633238  0.69987503  0.72558533     0.94740
O655        O  0.27211815  0.72590188  0.62188548    -0.78470
O656        O  0.36802940  0.66135878  0.73337228    -0.83670
C657        C  0.41949384  0.65133716  0.62518922     0.97360
C658        C  0.37343394  0.63536767  0.72890620     1.03280
O659        O  0.38050936  0.64410289  0.59678406    -0.79310
C660        C  0.31405389  0.73752795  0.62367255     1.01580
Fe661      Fe  0.02640663  0.57025017  0.88157869     1.65780
Fe662      Fe  0.41063512  0.56509047  0.81889825     1.73250
Fe663      Fe  0.45159365  0.62497493  0.87992298     1.54410
O664        O  0.49053825  0.61822072  0.95074009    -0.83050
O665        O  0.40238750  0.59452316  0.76720960    -0.81350
O666        O  0.01623717  0.57357840  0.95240654    -0.85550
O667        O  0.06530609  0.60807690  0.88882586    -0.80410
O668        O  0.38994360  0.61176829  0.90379202    -0.82180
O669        O  0.46205433  0.54667164  0.78113873    -0.84930
C670        C  0.05714928  0.63321416  0.87442977     0.95840
C671        C  0.00640801  0.59591240  0.97369221     1.03280
O672        O  0.46261759  0.58704538  0.85982664    -1.13910
O673        O  0.41645680  0.53229407  0.86812621    -0.76340
O674        O  0.49839069  0.52999282  0.87866641    -0.79830
O675        O  0.01373820  0.64184878  0.85829784    -0.80520
C676        C  0.45646790  0.51835213  0.87687187     0.94740
O677        O  0.03474666  0.56719511  0.80952167    -0.78470
O678        O  0.35117516  0.58449412  0.84520343    -0.83670
C679        C  0.39698816  0.62051486  0.77167485     0.97360
C680        C  0.35095785  0.60452936  0.87539226     1.03280
O681        O  0.41067555  0.63404732  0.81131743    -0.79310
C682        C  0.50413393  0.55601926  0.77496951     1.01580
Fe683      Fe  0.99407301  0.57023965  0.61899493     1.65780
Fe684      Fe  0.10984601  0.56509960  0.68166971     1.73250
Fe685      Fe  0.06884796  0.62497849  0.62065346     1.54420
O686        O  0.02989900  0.61822193  0.54983769    -0.83050
O687        O  0.11806865  0.59452817  0.73336168    -0.81350
O688        O  0.00423559  0.57357342  0.54816726    -0.85550
O689        O  0.45515102  0.60806054  0.61175147    -0.80410
O690        O  0.13050222  0.61179179  0.59677348    -0.82180
O691        O  0.05844088  0.54666869  0.71943174    -0.84930
C692        C  0.46329958  0.63319645  0.62615762     0.95840
C693        C  0.01404662  0.59591144  0.52688348     1.03280
O694        O  0.05785083  0.58704552  0.64074364    -1.13910
O695        O  0.10405173  0.53230951  0.63243289    -0.76340
O696        O  0.02212010  0.52998690  0.62190029    -0.79830
O697        O  0.00670491  0.64183353  0.64229582    -0.80520
C698        C  0.06405288  0.51835868  0.62367679     0.94740
O699        O  0.48573993  0.56718364  0.69105135    -0.78470
O700        O  0.16928460  0.58451819  0.65536006    -0.83670
C701        C  0.12344980  0.62052112  0.72890023     0.97370
C702        C  0.16949184  0.60455226  0.62516702     1.03280
O703        O  0.10976258  0.63405355  0.68925749    -0.79310
C704        C  0.01636157  0.55601607  0.72560532     1.01580
Fe705      Fe  0.77646971  0.32023819  0.38154263     1.65780
Fe706      Fe  0.66070292  0.31510067  0.31885486     1.73250
Fe707      Fe  0.70168988  0.37497751  0.37987641     1.54420
O708        O  0.74063533  0.36822122  0.45069408    -0.83050
O709        O  0.65248954  0.34452934  0.26716203    -0.81350
O710        O  0.76629915  0.32357222  0.45236802    -0.85550
O711        O  0.81538947  0.35805940  0.38878784    -0.80410
O712        O  0.64003526  0.36178870  0.40375133    -0.82180
O713        O  0.71211480  0.29666640  0.28110441    -0.84930
C714        C  0.80723996  0.38319539  0.37437990     0.95840
C715        C  0.75648671  0.34591070  0.47365010     1.03280
O716        O  0.71269305  0.33704522  0.35978672    -1.13910
O717        O  0.66648854  0.28231208  0.36809341    -0.76340
O718        O  0.74842066  0.27998590  0.37863504    -0.79830
O719        O  0.76383434  0.39183278  0.35823921    -0.80520
C720        C  0.70648611  0.26835943  0.37685306     0.94740
O721        O  0.78481209  0.31718179  0.30948825    -0.78470
O722        O  0.60125926  0.33452105  0.34515440    -0.83670
C723        C  0.64709438  0.37052119  0.27162613     0.97370
C724        C  0.60104814  0.35455192  0.37535242     1.03280
O725        O  0.66077552  0.38405272  0.31127054    -0.79310
C726        C  0.75419339  0.30601436  0.27493273     1.01580
Fe727      Fe  0.74413497  0.32025052  0.11895871     1.65780
Fe728      Fe  0.85991257  0.31508912  0.18162686     1.73250
Fe729      Fe  0.81894179  0.37497536  0.12060765     1.54420
O730        O  0.77999449  0.36822078  0.04979202    -0.83050
O731        O  0.86816787  0.34452145  0.23331528    -0.81350
O732        O  0.75429678  0.32357881  0.04812858    -0.85550
O733        O  0.70523216  0.35807658  0.11171304    -0.80410
O734        O  0.88059197  0.36177163  0.09673388    -0.82180
O735        O  0.80850052  0.29667246  0.21939665    -0.84930
C736        C  0.71338761  0.38321384  0.12610708     0.95840
C737        C  0.76412468  0.34591241  0.02684142     1.03280
O738        O  0.80792463  0.33704503  0.14070408    -1.13910
O739        O  0.85408379  0.28229171  0.13239995    -0.76340
O740        O  0.77215042  0.27999321  0.12186861    -0.79830
O741        O  0.75679809  0.39184826  0.14223739    -0.80520
C742        C  0.81407181  0.26835126  0.12365768     0.94740
O743        O  0.73580440  0.31719547  0.19101797    -0.78470
O744        O  0.91936696  0.33449188  0.15531258    -0.83670
C745        C  0.87355365  0.37051424  0.22885265     0.97360
C746        C  0.91958021  0.35453012  0.12512840     1.03280
O747        O  0.85985971  0.38404762  0.18921179    -0.79310
C748        C  0.76642052  0.30601953  0.22556837     1.01580
Fe749      Fe  0.52646759  0.43564924  0.38154248     1.65780
Fe750      Fe  0.91070035  0.44078819  0.31885318     1.73250
Fe751      Fe  0.95169030  0.38091067  0.37987550     1.54420
O752        O  0.51383759  0.36405530  0.35824274    -0.83050
O753        O  0.85125592  0.42136720  0.34514998    -0.81350
O754        O  0.56539017  0.39782845  0.38879023    -0.85550
O755        O  0.51629717  0.43231534  0.45236794    -0.80410
O756        O  0.91078150  0.37183571  0.31126751    -0.82180
O757        O  0.91648503  0.47357735  0.36809150    -0.84930
C758        C  0.00648355  0.40997737  0.47365031     0.95840
C759        C  0.55724230  0.37269242  0.37438420     1.03280
O760        O  0.96269138  0.41884308  0.35978640    -1.13910
O761        O  0.96211162  0.45922307  0.28110533    -0.76340
O762        O  0.53480897  0.43870545  0.30948728    -0.79900
O763        O  0.99063114  0.38766729  0.45069471    -0.80520
C764        C  0.00418936  0.44987381  0.27493233     0.94740
O765        O  0.99841756  0.47590130  0.37863486    -0.78470
O766        O  0.90249005  0.41135968  0.26715952    -0.83670
C767        C  0.85104520  0.40133562  0.37534713     0.97360
C768        C  0.89709955  0.38536744  0.27162290     1.03280
O769        O  0.89003225  0.39409848  0.40374666    -0.79310
C770        C  0.95648331  0.48752877  0.37685317     1.01580
Fe771      Fe  0.49412935  0.43563771  0.11895860     1.65780
Fe772      Fe  0.60990521  0.44079770  0.18162864     1.73250
Fe773      Fe  0.56894056  0.38091254  0.12060920     1.54410
O774        O  0.00679731  0.36403950  0.14223607    -0.83050
O775        O  0.66936274  0.42139277  0.15532055    -0.81350
O776        O  0.95522863  0.39781165  0.11171272    -0.85550
O777        O  0.00429103  0.43230920  0.04812831    -0.80410
O778        O  0.60985631  0.37184080  0.18921498    -0.82180
O779        O  0.60407863  0.47359303  0.13239822    -0.84930
C780        C  0.51412164  0.40997571  0.02684167     0.95840
C781        C  0.96338638  0.37267388  0.12610482     1.03280
O782        O  0.55791962  0.41884256  0.14070454    -1.13910
O783        O  0.55849111  0.45921750  0.21939277    -0.76340
O784        O  0.48579859  0.43869217  0.19101807    -0.79830
O785        O  0.52999494  0.38766757  0.04979267    -0.80520
C786        C  0.51641403  0.44986880  0.22556723     0.94740
O787        O  0.52214528  0.47589498  0.12186895    -0.78470
O788        O  0.61815514  0.41136653  0.23331890    -0.83670
C789        C  0.66957902  0.40135656  0.12513331     0.97370
C790        C  0.62354580  0.38537406  0.22885628     1.03280
O791        O  0.63059174  0.39411565  0.09673774    -0.79310
C792        C  0.56406754  0.48753533  0.12365787     1.01580
Fe793      Fe  0.77640422  0.18563699  0.38155945     1.65780
Fe794      Fe  0.66062249  0.19079901  0.31890137     1.73250
Fe795      Fe  0.70159844  0.13091211  0.37991620     1.54410
O796        O  0.76374072  0.11403947  0.35828508    -0.83050
O797        O  0.60116996  0.17139525  0.34521838    -0.81350
O798        O  0.81530784  0.14781148  0.38880370    -0.85550
O799        O  0.76625057  0.18230860  0.45239202    -0.80410
O800        O  0.66068330  0.12184043  0.31131184    -0.82180
O801        O  0.66645603  0.22359557  0.36813030    -0.84930
C802        C  0.75642141  0.15997555  0.47368032     0.95840
C803        C  0.80715122  0.12267367  0.37441402     1.03280
O804        O  0.71261314  0.16884279  0.35982037    -1.13910
O805        O  0.71202989  0.20921630  0.28112691    -0.76340
O806        O  0.78472588  0.18869129  0.30949792    -0.79830
O807        O  0.74054688  0.13766751  0.45073110    -0.80520
C808        C  0.75410751  0.19986811  0.27495037     0.94740
O809        O  0.74838898  0.22589428  0.37865148    -0.78470
O810        O  0.65236542  0.16136804  0.26721188    -0.83670
C811        C  0.60095747  0.15135631  0.37540146     0.97360
C812        C  0.64698847  0.13537449  0.27167197     1.03280
O813        O  0.63994717  0.14411291  0.40379203    -0.79310
C814        C  0.70646826  0.23753613  0.37686775     1.01580
Fe815      Fe  0.74406713  0.18565002  0.11897586     1.65780
Fe816      Fe  0.85982811  0.19078743  0.18167808     1.73250
Fe817      Fe  0.81885115  0.13091181  0.12064971     1.54410
O818        O  0.75670264  0.11405502  0.14227666    -0.83050
O819        O  0.91927877  0.17136527  0.15539182    -0.81350
O820        O  0.70514787  0.14782858  0.11172677    -0.85550
O821        O  0.75424491  0.18231613  0.04815260    -0.80410
O822        O  0.85975933  0.12183690  0.18925965    -0.82180
O823        O  0.85405130  0.22357508  0.13243800    -0.84930
C824        C  0.76406042  0.15997792  0.02687167     0.95840
C825        C  0.71329726  0.12269238  0.12613387     1.03280
O826        O  0.80784274  0.16884328  0.14073884    -1.13910
O827        O  0.80840935  0.20922511  0.21941441    -0.76340
O828        O  0.73571630  0.18870643  0.19102885    -0.79830
O829        O  0.77991374  0.13766804  0.04982872    -0.80520
C830        C  0.76633238  0.19987503  0.22558533     0.94740
O831        O  0.77211815  0.22590188  0.12188548    -0.78470
O832        O  0.86802939  0.16135878  0.23337229    -0.83670
C833        C  0.91949383  0.15133716  0.12518922     0.97360
C834        C  0.87343394  0.13536767  0.22890620     1.03280
O835        O  0.88050936  0.14410289  0.09678407    -0.79310
C836        C  0.81405390  0.23752795  0.12367255     1.01580
Fe837      Fe  0.52640663  0.07025018  0.38157869     1.65780
Fe838      Fe  0.91063512  0.06509047  0.31889825     1.73250
Fe839      Fe  0.95159364  0.12497493  0.37992298     1.54410
O840        O  0.99053824  0.11822072  0.45074010    -0.83050
O841        O  0.90238750  0.09452316  0.26720960    -0.81350
O842        O  0.51623717  0.07357840  0.45240654    -0.85550
O843        O  0.56530609  0.10807690  0.38882587    -0.80410
O844        O  0.88994359  0.11176828  0.40379202    -0.82180
O845        O  0.96205433  0.04667164  0.28113873    -0.84930
C846        C  0.55714928  0.13321416  0.37442978     0.95840
C847        C  0.50640801  0.09591240  0.47369221     1.03280
O848        O  0.96261759  0.08704538  0.35982664    -1.13910
O849        O  0.91645681  0.03229407  0.36812621    -0.76340
O850        O  0.99839069  0.02999282  0.37866641    -0.79830
O851        O  0.51373820  0.14184878  0.35829784    -0.80520
C852        C  0.95646790  0.01835214  0.37687187     0.94740
O853        O  0.53474666  0.06719511  0.30952168    -0.78470
O854        O  0.85117516  0.08449412  0.34520343    -0.83670
C855        C  0.89698816  0.12051486  0.27167485     0.97360
C856        C  0.85095785  0.10452936  0.37539226     1.03280
O857        O  0.91067554  0.13404732  0.31131743    -0.79310
C858        C  0.00413393  0.05601926  0.27496951     1.01580
Fe859      Fe  0.49407301  0.07023965  0.11899493     1.65780
Fe860      Fe  0.60984601  0.06509960  0.18166971     1.73250
Fe861      Fe  0.56884796  0.12497849  0.12065346     1.54420
O862        O  0.52989899  0.11822193  0.04983769    -0.83050
O863        O  0.61806864  0.09452817  0.23336168    -0.81350
O864        O  0.50423558  0.07357342  0.04816726    -0.85550
O865        O  0.95515102  0.10806054  0.11175147    -0.80410
O866        O  0.63050221  0.11179180  0.09677348    -0.82180
O867        O  0.55844088  0.04666869  0.21943174    -0.84930
C868        C  0.96329957  0.13319645  0.12615762     0.95840
C869        C  0.51404661  0.09591144  0.02688348     1.03280
O870        O  0.55785083  0.08704553  0.14074364    -1.13910
O871        O  0.60405173  0.03230951  0.13243289    -0.76340
O872        O  0.52212011  0.02998690  0.12190029    -0.79830
O873        O  0.50670490  0.14183353  0.14229582    -0.80520
C874        C  0.56405288  0.01835869  0.12367679     0.94740
O875        O  0.98573993  0.06718364  0.19105135    -0.78470
O876        O  0.66928460  0.08451819  0.15536006    -0.83670
C877        C  0.62344979  0.12052113  0.22890023     0.97370
C878        C  0.66949183  0.10455226  0.12516702     1.03280
O879        O  0.60976258  0.13405355  0.18925749    -0.79310
C880        C  0.51636157  0.05601607  0.22560532     1.01580
Fe881      Fe  0.77646969  0.32023819  0.88154263     1.65780
Fe882      Fe  0.66070291  0.31510066  0.81885486     1.73250
Fe883      Fe  0.70168987  0.37497750  0.87987641     1.54420
O884        O  0.74063532  0.36822122  0.95069408    -0.83050
O885        O  0.65248952  0.34452934  0.76716204    -0.81350
O886        O  0.76629914  0.32357221  0.95236802    -0.85550
O887        O  0.81538946  0.35805940  0.88878783    -0.80410
O888        O  0.64003524  0.36178870  0.90375133    -0.82180
O889        O  0.71211478  0.29666640  0.78110440    -0.84930
C890        C  0.80723995  0.38319539  0.87437990     0.95840
C891        C  0.75648671  0.34591069  0.97365010     1.03280
O892        O  0.71269303  0.33704522  0.85978672    -1.13910
O893        O  0.66648853  0.28231208  0.86809340    -0.76340
O894        O  0.74842065  0.27998590  0.87863504    -0.79830
O895        O  0.76383433  0.39183278  0.85823921    -0.80520
C896        C  0.70648610  0.26835943  0.87685305     0.94740
O897        O  0.78481208  0.31718179  0.80948824    -0.78470
O898        O  0.60125924  0.33452104  0.84515440    -0.83670
C899        C  0.64709436  0.37052119  0.77162613     0.97370
C900        C  0.60104813  0.35455192  0.87535242     1.03280
O901        O  0.66077550  0.38405272  0.81127054    -0.79310
C902        C  0.75419337  0.30601436  0.77493272     1.01580
Fe903      Fe  0.74413496  0.32025052  0.61895871     1.65780
Fe904      Fe  0.85991255  0.31508912  0.68162686     1.73250
Fe905      Fe  0.81894177  0.37497536  0.62060765     1.54420
O906        O  0.77999448  0.36822078  0.54979202    -0.83050
O907        O  0.86816785  0.34452145  0.73331528    -0.81350
O908        O  0.75429678  0.32357881  0.54812858    -0.85550
O909        O  0.70523215  0.35807658  0.61171304    -0.80410
O910        O  0.88059196  0.36177163  0.59673388    -0.82180
O911        O  0.80850051  0.29667246  0.71939665    -0.84930
C912        C  0.71338759  0.38321384  0.62610708     0.95840
C913        C  0.76412467  0.34591241  0.52684142     1.03280
O914        O  0.80792461  0.33704503  0.64070408    -1.13910
O915        O  0.85408378  0.28229171  0.63239995    -0.76340
O916        O  0.77215041  0.27999321  0.62186860    -0.79830
O917        O  0.75679808  0.39184826  0.64223739    -0.80520
C918        C  0.81407180  0.26835126  0.62365768     0.94740
O919        O  0.73580438  0.31719546  0.69101796    -0.78470
O920        O  0.91936694  0.33449189  0.65531259    -0.83670
C921        C  0.87355363  0.37051423  0.72885265     0.97360
C922        C  0.91958019  0.35453013  0.62512841     1.03280
O923        O  0.85985969  0.38404762  0.68921180    -0.79310
C924        C  0.76642050  0.30601953  0.72556836     1.01580
Fe925      Fe  0.52646757  0.43564924  0.88154247     1.65780
Fe926      Fe  0.91070034  0.44078819  0.81885318     1.73250
Fe927      Fe  0.95169029  0.38091067  0.87987551     1.54420
O928        O  0.51383757  0.36405529  0.85824275    -0.83050
O929        O  0.85125590  0.42136720  0.84514999    -0.81350
O930        O  0.56539016  0.39782845  0.88879023    -0.85550
O931        O  0.51629716  0.43231534  0.95236794    -0.80410
O932        O  0.91078148  0.37183571  0.81126751    -0.82180
O933        O  0.91648502  0.47357735  0.86809151    -0.84930
C934        C  0.00648355  0.40997736  0.97365031     0.95840
C935        C  0.55724228  0.37269242  0.87438420     1.03280
O936        O  0.96269136  0.41884308  0.85978640    -1.13910
O937        O  0.96211160  0.45922307  0.78110533    -0.76340
O938        O  0.53480895  0.43870545  0.80948728    -0.79900
O939        O  0.99063113  0.38766728  0.95069472    -0.80520
C940        C  0.00418934  0.44987381  0.77493233     0.94740
O941        O  0.99841755  0.47590130  0.87863486    -0.78470
O942        O  0.90249003  0.41135968  0.76715953    -0.83670
C943        C  0.85104519  0.40133562  0.87534713     0.97360
C944        C  0.89709953  0.38536744  0.77162290     1.03280
O945        O  0.89003224  0.39409848  0.90374666    -0.79310
C946        C  0.95648330  0.48752877  0.87685317     1.01580
Fe947      Fe  0.49412934  0.43563771  0.61895859     1.65780
Fe948      Fe  0.60990519  0.44079770  0.68162865     1.73250
Fe949      Fe  0.56894055  0.38091254  0.62060920     1.54410
O950        O  0.00679730  0.36403950  0.64223607    -0.83050
O951        O  0.66936273  0.42139277  0.65532055    -0.81350
O952        O  0.95522861  0.39781165  0.61171272    -0.85550
O953        O  0.00429102  0.43230920  0.54812831    -0.80410
O954        O  0.60985629  0.37184080  0.68921498    -0.82180
O955        O  0.60407862  0.47359303  0.63239822    -0.84930
C956        C  0.51412163  0.40997571  0.52684167     0.95840
C957        C  0.96338637  0.37267388  0.62610482     1.03280
O958        O  0.55791961  0.41884256  0.64070454    -1.13910
O959        O  0.55849109  0.45921750  0.71939277    -0.76340
O960        O  0.48579857  0.43869217  0.69101807    -0.79830
O961        O  0.52999492  0.38766757  0.54979267    -0.80520
C962        C  0.51641401  0.44986879  0.72556723     0.94740
O963        O  0.52214527  0.47589498  0.62186894    -0.78470
O964        O  0.61815512  0.41136653  0.73331890    -0.83670
C965        C  0.66957900  0.40135656  0.62513332     0.97370
C966        C  0.62354578  0.38537405  0.72885628     1.03280
O967        O  0.63059172  0.39411565  0.59673775    -0.79310
C968        C  0.56406754  0.48753533  0.62365787     1.01580
Fe969      Fe  0.77640422  0.18563699  0.88155945     1.65780
Fe970      Fe  0.66062249  0.19079900  0.81890137     1.73250
Fe971      Fe  0.70159844  0.13091211  0.87991620     1.54410
O972        O  0.76374072  0.11403946  0.85828509    -0.83050
O973        O  0.60116996  0.17139525  0.84521837    -0.81350
O974        O  0.81530783  0.14781148  0.88880370    -0.85550
O975        O  0.76625056  0.18230860  0.95239202    -0.80410
O976        O  0.66068330  0.12184043  0.81131184    -0.82180
O977        O  0.66645602  0.22359557  0.86813030    -0.84930
C978        C  0.75642141  0.15997555  0.97368033     0.95840
C979        C  0.80715122  0.12267367  0.87441403     1.03280
O980        O  0.71261314  0.16884279  0.85982037    -1.13910
O981        O  0.71202989  0.20921630  0.78112691    -0.76340
O982        O  0.78472588  0.18869129  0.80949792    -0.79830
O983        O  0.74054688  0.13766751  0.95073110    -0.80520
C984        C  0.75410751  0.19986810  0.77495037     0.94740
O985        O  0.74838897  0.22589428  0.87865148    -0.78470
O986        O  0.65236542  0.16136803  0.76721188    -0.83670
C987        C  0.60095747  0.15135631  0.87540146     0.97360
C988        C  0.64698847  0.13537448  0.77167197     1.03280
O989        O  0.63994717  0.14411291  0.90379202    -0.79310
C990        C  0.70646825  0.23753613  0.87686775     1.01580
Fe991      Fe  0.74406713  0.18565002  0.61897586     1.65780
Fe992      Fe  0.85982811  0.19078743  0.68167807     1.73250
Fe993      Fe  0.81885115  0.13091181  0.62064971     1.54410
O994        O  0.75670264  0.11405502  0.64227665    -0.83050
O995        O  0.91927877  0.17136527  0.65539182    -0.81350
O996        O  0.70514788  0.14782857  0.61172677    -0.85550
O997        O  0.75424491  0.18231613  0.54815260    -0.80410
O998        O  0.85975933  0.12183690  0.68925965    -0.82180
O999        O  0.85405129  0.22357508  0.63243800    -0.84930
C1000       C  0.76406042  0.15997792  0.52687167     0.95840
C1001       C  0.71329726  0.12269238  0.62613386     1.03280
O1002       O  0.80784274  0.16884328  0.64073884    -1.13910
O1003       O  0.80840935  0.20922511  0.71941441    -0.76340
O1004       O  0.73571630  0.18870643  0.69102885    -0.79830
O1005       O  0.77991374  0.13766803  0.54982872    -0.80520
C1006       C  0.76633238  0.19987503  0.72558533     0.94740
O1007       O  0.77211815  0.22590188  0.62188548    -0.78470
O1008       O  0.86802940  0.16135878  0.73337228    -0.83670
C1009       C  0.91949383  0.15133716  0.62518922     0.97360
C1010       C  0.87343394  0.13536766  0.72890620     1.03280
O1011       O  0.88050936  0.14410289  0.59678407    -0.79310
C1012       C  0.81405389  0.23752795  0.62367255     1.01580
Fe1013     Fe  0.52640663  0.07025018  0.88157868     1.65780
Fe1014     Fe  0.91063512  0.06509046  0.81889825     1.73250
Fe1015     Fe  0.95159364  0.12497493  0.87992298     1.54410
O1016       O  0.99053825  0.11822072  0.95074009    -0.83050
O1017       O  0.90238750  0.09452316  0.76720960    -0.81350
O1018       O  0.51623717  0.07357840  0.95240654    -0.85550
O1019       O  0.56530609  0.10807690  0.88882586    -0.80410
O1020       O  0.88994359  0.11176829  0.90379202    -0.82180
O1021       O  0.96205433  0.04667164  0.78113873    -0.84930
C1022       C  0.55714928  0.13321416  0.87442978     0.95840
C1023       C  0.50640801  0.09591240  0.97369221     1.03280
O1024       O  0.96261759  0.08704538  0.85982664    -1.13910
O1025       O  0.91645680  0.03229407  0.86812621    -0.76340
O1026       O  0.99839069  0.02999282  0.87866641    -0.79830
O1027       O  0.51373820  0.14184878  0.85829784    -0.80520
C1028       C  0.95646790  0.01835213  0.87687187     0.94740
O1029       O  0.53474665  0.06719511  0.80952167    -0.78470
O1030       O  0.85117516  0.08449412  0.84520343    -0.83670
C1031       C  0.89698816  0.12051486  0.77167485     0.97360
C1032       C  0.85095785  0.10452936  0.87539226     1.03280
O1033       O  0.91067554  0.13404732  0.81131743    -0.79310
C1034       C  0.00413392  0.05601926  0.77496951     1.01580
Fe1035     Fe  0.49407301  0.07023965  0.61899493     1.65780
Fe1036     Fe  0.60984600  0.06509960  0.68166971     1.73250
Fe1037     Fe  0.56884795  0.12497849  0.62065346     1.54420
O1038       O  0.52989899  0.11822193  0.54983769    -0.83050
O1039       O  0.61806864  0.09452817  0.73336168    -0.81350
O1040       O  0.50423558  0.07357342  0.54816726    -0.85550
O1041       O  0.95515102  0.10806054  0.61175147    -0.80410
O1042       O  0.63050221  0.11179179  0.59677348    -0.82180
O1043       O  0.55844087  0.04666869  0.71943174    -0.84930
C1044       C  0.96329957  0.13319645  0.62615762     0.95840
C1045       C  0.51404661  0.09591144  0.52688349     1.03280
O1046       O  0.55785082  0.08704552  0.64074364    -1.13910
O1047       O  0.60405173  0.03230951  0.63243289    -0.76340
O1048       O  0.52212010  0.02998690  0.62190029    -0.79830
O1049       O  0.50670490  0.14183353  0.64229582    -0.80520
C1050       C  0.56405288  0.01835868  0.62367679     0.94740
O1051       O  0.98573993  0.06718363  0.69105135    -0.78470
O1052       O  0.66928460  0.08451819  0.65536006    -0.83670
C1053       C  0.62344979  0.12052113  0.72890023     0.97370
C1054       C  0.66949183  0.10455226  0.62516702     1.03280
O1055       O  0.60976258  0.13405355  0.68925749    -0.79310
C1056       C  0.51636156  0.05601607  0.72560532     1.01580
Fe1057     Fe  0.77646971  0.82023819  0.38154263     1.65780
Fe1058     Fe  0.66070292  0.81510067  0.31885486     1.73250
Fe1059     Fe  0.70168989  0.87497751  0.37987641     1.54420
O1060       O  0.74063534  0.86822122  0.45069408    -0.83050
O1061       O  0.65248954  0.84452934  0.26716203    -0.81350
O1062       O  0.76629915  0.82357222  0.45236802    -0.85550
O1063       O  0.81538947  0.85805940  0.38878784    -0.80410
O1064       O  0.64003526  0.86178870  0.40375133    -0.82180
O1065       O  0.71211480  0.79666640  0.28110441    -0.84930
C1066       C  0.80723996  0.88319539  0.37437990     0.95840
C1067       C  0.75648672  0.84591069  0.47365010     1.03280
O1068       O  0.71269305  0.83704522  0.35978671    -1.13910
O1069       O  0.66648854  0.78231208  0.36809340    -0.76340
O1070       O  0.74842066  0.77998590  0.37863504    -0.79830
O1071       O  0.76383434  0.89183278  0.35823921    -0.80520
C1072       C  0.70648611  0.76835943  0.37685305     0.94740
O1073       O  0.78481209  0.81718179  0.30948825    -0.78470
O1074       O  0.60125926  0.83452104  0.34515440    -0.83670
C1075       C  0.64709438  0.87052119  0.27162613     0.97370
C1076       C  0.60104815  0.85455192  0.37535242     1.03280
O1077       O  0.66077552  0.88405272  0.31127054    -0.79310
C1078       C  0.75419339  0.80601436  0.27493272     1.01580
Fe1079     Fe  0.74413497  0.82025052  0.11895871     1.65780
Fe1080     Fe  0.85991257  0.81508912  0.18162686     1.73250
Fe1081     Fe  0.81894179  0.87497536  0.12060765     1.54420
O1082       O  0.77999449  0.86822077  0.04979202    -0.83050
O1083       O  0.86816787  0.84452145  0.23331528    -0.81350
O1084       O  0.75429679  0.82357881  0.04812858    -0.85550
O1085       O  0.70523217  0.85807658  0.11171304    -0.80410
O1086       O  0.88059198  0.86177163  0.09673388    -0.82180
O1087       O  0.80850052  0.79667246  0.21939665    -0.84930
C1088       C  0.71338761  0.88321384  0.12610708     0.95840
C1089       C  0.76412468  0.84591241  0.02684142     1.03280
O1090       O  0.80792463  0.83704503  0.14070407    -1.13910
O1091       O  0.85408379  0.78229171  0.13239995    -0.76340
O1092       O  0.77215042  0.77999321  0.12186860    -0.79830
O1093       O  0.75679809  0.89184826  0.14223738    -0.80520
C1094       C  0.81407182  0.76835126  0.12365768     0.94740
O1095       O  0.73580440  0.81719547  0.19101796    -0.78470
O1096       O  0.91936696  0.83449188  0.15531258    -0.83670
C1097       C  0.87355365  0.87051423  0.22885265     0.97360
C1098       C  0.91958021  0.85453012  0.12512840     1.03280
O1099       O  0.85985971  0.88404762  0.18921179    -0.79310
C1100       C  0.76642052  0.80601953  0.22556836     1.01580
Fe1101     Fe  0.52646759  0.93564924  0.38154248     1.65780
Fe1102     Fe  0.91070035  0.94078819  0.31885317     1.73250
Fe1103     Fe  0.95169030  0.88091067  0.37987550     1.54420
O1104       O  0.51383759  0.86405530  0.35824274    -0.83050
O1105       O  0.85125592  0.92136720  0.34514998    -0.81350
O1106       O  0.56539018  0.89782845  0.38879023    -0.85550
O1107       O  0.51629717  0.93231534  0.45236794    -0.80410
O1108       O  0.91078150  0.87183571  0.31126750    -0.82180
O1109       O  0.91648502  0.97357735  0.36809150    -0.84930
C1110       C  0.00648355  0.90997737  0.47365031     0.95840
C1111       C  0.55724230  0.87269242  0.37438420     1.03280
O1112       O  0.96269138  0.91884308  0.35978640    -1.13910
O1113       O  0.96211162  0.95922307  0.28110533    -0.76340
O1114       O  0.53480897  0.93870545  0.30948729    -0.79900
O1115       O  0.99063114  0.88766729  0.45069471    -0.80520
C1116       C  0.00418936  0.94987381  0.27493233     0.94740
O1117       O  0.99841755  0.97590130  0.37863486    -0.78470
O1118       O  0.90249005  0.91135968  0.26715952    -0.83670
C1119       C  0.85104520  0.90133562  0.37534712     0.97360
C1120       C  0.89709955  0.88536744  0.27162289     1.03280
O1121       O  0.89003225  0.89409848  0.40374665    -0.79310
C1122       C  0.95648331  0.98752877  0.37685317     1.01580
Fe1123     Fe  0.49412935  0.93563771  0.11895860     1.65780
Fe1124     Fe  0.60990521  0.94079770  0.18162864     1.73250
Fe1125     Fe  0.56894056  0.88091254  0.12060920     1.54410
O1126       O  0.00679732  0.86403950  0.14223607    -0.83050
O1127       O  0.66936275  0.92139277  0.15532054    -0.81350
O1128       O  0.95522863  0.89781165  0.11171272    -0.85550
O1129       O  0.00429103  0.93230920  0.04812831    -0.80410
O1130       O  0.60985631  0.87184080  0.18921498    -0.82180
O1131       O  0.60407863  0.97359303  0.13239822    -0.84930
C1132       C  0.51412164  0.90997571  0.02684167     0.95840
C1133       C  0.96338639  0.87267388  0.12610482     1.03280
O1134       O  0.55791962  0.91884256  0.14070454    -1.13910
O1135       O  0.55849111  0.95921750  0.21939277    -0.76340
O1136       O  0.48579859  0.93869217  0.19101807    -0.79830
O1137       O  0.52999494  0.88766757  0.04979267    -0.80520
C1138       C  0.51641403  0.94986880  0.22556723     0.94740
O1139       O  0.52214529  0.97589498  0.12186895    -0.78470
O1140       O  0.61815514  0.91136653  0.23331890    -0.83670
C1141       C  0.66957902  0.90135656  0.12513331     0.97370
C1142       C  0.62354580  0.88537406  0.22885628     1.03280
O1143       O  0.63059174  0.89411565  0.09673774    -0.79310
C1144       C  0.56406755  0.98753533  0.12365788     1.01580
Fe1145     Fe  0.77640423  0.68563699  0.38155945     1.65780
Fe1146     Fe  0.66062249  0.69079900  0.31890137     1.73250
Fe1147     Fe  0.70159845  0.63091211  0.37991620     1.54410
O1148       O  0.76374073  0.61403947  0.35828508    -0.83050
O1149       O  0.60116997  0.67139525  0.34521838    -0.81350
O1150       O  0.81530784  0.64781148  0.38880370    -0.85550
O1151       O  0.76625057  0.68230860  0.45239202    -0.80410
O1152       O  0.66068330  0.62184043  0.31131184    -0.82180
O1153       O  0.66645603  0.72359557  0.36813030    -0.84930
C1154       C  0.75642142  0.65997555  0.47368032     0.95840
C1155       C  0.80715122  0.62267367  0.37441403     1.03280
O1156       O  0.71261315  0.66884279  0.35982037    -1.13910
O1157       O  0.71202989  0.70921630  0.28112691    -0.76340
O1158       O  0.78472589  0.68869129  0.30949792    -0.79830
O1159       O  0.74054688  0.63766751  0.45073110    -0.80520
C1160       C  0.75410752  0.69986811  0.27495037     0.94740
O1161       O  0.74838898  0.72589428  0.37865148    -0.78470
O1162       O  0.65236542  0.66136803  0.26721188    -0.83670
C1163       C  0.60095747  0.65135631  0.37540146     0.97360
C1164       C  0.64698848  0.63537449  0.27167197     1.03280
O1165       O  0.63994718  0.64411291  0.40379203    -0.79310
C1166       C  0.70646826  0.73753613  0.37686775     1.01580
Fe1167     Fe  0.74406714  0.68565002  0.11897586     1.65780
Fe1168     Fe  0.85982811  0.69078743  0.18167808     1.73250
Fe1169     Fe  0.81885116  0.63091181  0.12064971     1.54410
O1170       O  0.75670265  0.61405502  0.14227666    -0.83050
O1171       O  0.91927878  0.67136527  0.15539182    -0.81350
O1172       O  0.70514788  0.64782857  0.11172677    -0.85550
O1173       O  0.75424492  0.68231613  0.04815260    -0.80410
O1174       O  0.85975934  0.62183690  0.18925965    -0.82180
O1175       O  0.85405130  0.72357508  0.13243800    -0.84930
C1176       C  0.76406042  0.65997792  0.02687167     0.95840
C1177       C  0.71329726  0.62269238  0.12613387     1.03280
O1178       O  0.80784275  0.66884328  0.14073884    -1.13910
O1179       O  0.80840935  0.70922511  0.21941441    -0.76340
O1180       O  0.73571630  0.68870643  0.19102885    -0.79830
O1181       O  0.77991374  0.63766803  0.04982872    -0.80520
C1182       C  0.76633238  0.69987503  0.22558533     0.94740
O1183       O  0.77211816  0.72590188  0.12188548    -0.78470
O1184       O  0.86802940  0.66135878  0.23337228    -0.83670
C1185       C  0.91949384  0.65133716  0.12518922     0.97360
C1186       C  0.87343394  0.63536767  0.22890620     1.03280
O1187       O  0.88050936  0.64410289  0.09678407    -0.79310
C1188       C  0.81405390  0.73752795  0.12367255     1.01580
Fe1189     Fe  0.52640664  0.57025018  0.38157869     1.65780
Fe1190     Fe  0.91063513  0.56509047  0.31889825     1.73250
Fe1191     Fe  0.95159365  0.62497493  0.37992298     1.54410
O1192       O  0.99053825  0.61822072  0.45074010    -0.83050
O1193       O  0.90238751  0.59452316  0.26720960    -0.81350
O1194       O  0.51623717  0.57357840  0.45240654    -0.85550
O1195       O  0.56530609  0.60807690  0.38882587    -0.80410
O1196       O  0.88994360  0.61176828  0.40379202    -0.82180
O1197       O  0.96205434  0.54667164  0.28113873    -0.84930
C1198       C  0.55714929  0.63321416  0.37442978     0.95840
C1199       C  0.50640801  0.59591240  0.47369221     1.03280
O1200       O  0.96261760  0.58704538  0.35982664    -1.13910
O1201       O  0.91645681  0.53229407  0.36812621    -0.76340
O1202       O  0.99839070  0.52999282  0.37866641    -0.79830
O1203       O  0.51373820  0.64184878  0.35829784    -0.80520
C1204       C  0.95646791  0.51835213  0.37687187     0.94740
O1205       O  0.53474666  0.56719511  0.30952168    -0.78470
O1206       O  0.85117517  0.58449412  0.34520343    -0.83670
C1207       C  0.89698816  0.62051486  0.27167485     0.97360
C1208       C  0.85095786  0.60452936  0.37539226     1.03280
O1209       O  0.91067555  0.63404732  0.31131743    -0.79310
C1210       C  0.00413393  0.55601926  0.27496951     1.01580
Fe1211     Fe  0.49407301  0.57023965  0.11899493     1.65780
Fe1212     Fe  0.60984601  0.56509960  0.18166971     1.73250
Fe1213     Fe  0.56884796  0.62497849  0.12065346     1.54420
O1214       O  0.52989899  0.61822193  0.04983769    -0.83050
O1215       O  0.61806865  0.59452817  0.23336168    -0.81350
O1216       O  0.50423559  0.57357342  0.04816726    -0.85550
O1217       O  0.95515102  0.60806054  0.11175147    -0.80410
O1218       O  0.63050221  0.61179179  0.09677348    -0.82180
O1219       O  0.55844088  0.54666869  0.21943174    -0.84930
C1220       C  0.96329958  0.63319645  0.12615762     0.95840
C1221       C  0.51404662  0.59591144  0.02688348     1.03280
O1222       O  0.55785083  0.58704553  0.14074364    -1.13910
O1223       O  0.60405173  0.53230951  0.13243289    -0.76340
O1224       O  0.52212011  0.52998690  0.12190029    -0.79830
O1225       O  0.50670491  0.64183353  0.14229582    -0.80520
C1226       C  0.56405288  0.51835869  0.12367679     0.94740
O1227       O  0.98573993  0.56718364  0.19105135    -0.78470
O1228       O  0.66928460  0.58451819  0.15536006    -0.83670
C1229       C  0.62344980  0.62052113  0.22890023     0.97370
C1230       C  0.66949184  0.60455226  0.12516702     1.03280
O1231       O  0.60976258  0.63405355  0.18925749    -0.79310
C1232       C  0.51636157  0.55601607  0.22560532     1.01580
Fe1233     Fe  0.77646970  0.82023819  0.88154263     1.65780
Fe1234     Fe  0.66070291  0.81510066  0.81885486     1.73250
Fe1235     Fe  0.70168988  0.87497750  0.87987641     1.54420
O1236       O  0.74063533  0.86822122  0.95069408    -0.83050
O1237       O  0.65248953  0.84452934  0.76716203    -0.81350
O1238       O  0.76629915  0.82357221  0.95236801    -0.85550
O1239       O  0.81538946  0.85805940  0.88878783    -0.80410
O1240       O  0.64003525  0.86178870  0.90375133    -0.82180
O1241       O  0.71211479  0.79666640  0.78110440    -0.84930
C1242       C  0.80723995  0.88319539  0.87437990     0.95840
C1243       C  0.75648671  0.84591069  0.97365010     1.03280
O1244       O  0.71269304  0.83704522  0.85978671    -1.13910
O1245       O  0.66648854  0.78231208  0.86809340    -0.76340
O1246       O  0.74842066  0.77998590  0.87863504    -0.79830
O1247       O  0.76383433  0.89183278  0.85823921    -0.80520
C1248       C  0.70648611  0.76835943  0.87685305     0.94740
O1249       O  0.78481208  0.81718178  0.80948824    -0.78470
O1250       O  0.60125925  0.83452104  0.84515440    -0.83670
C1251       C  0.64709437  0.87052119  0.77162613     0.97370
C1252       C  0.60104814  0.85455192  0.87535242     1.03280
O1253       O  0.66077551  0.88405272  0.81127054    -0.79310
C1254       C  0.75419338  0.80601436  0.77493272     1.01580
Fe1255     Fe  0.74413496  0.82025052  0.61895871     1.65780
Fe1256     Fe  0.85991256  0.81508912  0.68162686     1.73250
Fe1257     Fe  0.81894178  0.87497536  0.62060765     1.54420
O1258       O  0.77999449  0.86822078  0.54979202    -0.83050
O1259       O  0.86816786  0.84452145  0.73331528    -0.81350
O1260       O  0.75429678  0.82357881  0.54812857    -0.85550
O1261       O  0.70523216  0.85807658  0.61171304    -0.80410
O1262       O  0.88059197  0.86177163  0.59673388    -0.82180
O1263       O  0.80850052  0.79667246  0.71939665    -0.84930
C1264       C  0.71338760  0.88321384  0.62610708     0.95840
C1265       C  0.76412468  0.84591241  0.52684142     1.03280
O1266       O  0.80792462  0.83704503  0.64070407    -1.13910
O1267       O  0.85408378  0.78229171  0.63239995    -0.76340
O1268       O  0.77215042  0.77999320  0.62186860    -0.79830
O1269       O  0.75679809  0.89184826  0.64223739    -0.80520
C1270       C  0.81407181  0.76835126  0.62365768     0.94740
O1271       O  0.73580439  0.81719546  0.69101796    -0.78470
O1272       O  0.91936695  0.83449188  0.65531258    -0.83670
C1273       C  0.87355364  0.87051423  0.72885265     0.97360
C1274       C  0.91958020  0.85453012  0.62512840     1.03280
O1275       O  0.85985970  0.88404762  0.68921180    -0.79310
C1276       C  0.76642051  0.80601953  0.72556836     1.01580
Fe1277     Fe  0.52646758  0.93564924  0.88154248     1.65780
Fe1278     Fe  0.91070034  0.94078819  0.81885318     1.73250
Fe1279     Fe  0.95169029  0.88091067  0.87987551     1.54420
O1280       O  0.51383758  0.86405529  0.85824275    -0.83050
O1281       O  0.85125591  0.92136720  0.84514998    -0.81350
O1282       O  0.56539017  0.89782845  0.88879023    -0.85550
O1283       O  0.51629716  0.93231534  0.95236794    -0.80410
O1284       O  0.91078149  0.87183571  0.81126751    -0.82180
O1285       O  0.91648502  0.97357735  0.86809150    -0.84930
C1286       C  0.00648355  0.90997737  0.97365031     0.95840
C1287       C  0.55724229  0.87269242  0.87438420     1.03280
O1288       O  0.96269137  0.91884308  0.85978640    -1.13910
O1289       O  0.96211161  0.95922307  0.78110533    -0.76340
O1290       O  0.53480896  0.93870545  0.80948728    -0.79900
O1291       O  0.99063113  0.88766729  0.95069471    -0.80520
C1292       C  0.00418935  0.94987381  0.77493233     0.94740
O1293       O  0.99841755  0.97590130  0.87863486    -0.78470
O1294       O  0.90249004  0.91135968  0.76715952    -0.83670
C1295       C  0.85104520  0.90133562  0.87534713     0.97360
C1296       C  0.89709954  0.88536744  0.77162290     1.03280
O1297       O  0.89003224  0.89409848  0.90374666    -0.79310
C1298       C  0.95648330  0.98752877  0.87685317     1.01580
Fe1299     Fe  0.49412934  0.93563771  0.61895859     1.65780
Fe1300     Fe  0.60990520  0.94079770  0.68162864     1.73250
Fe1301     Fe  0.56894055  0.88091254  0.62060920     1.54410
O1302       O  0.00679731  0.86403950  0.64223607    -0.83050
O1303       O  0.66936274  0.92139277  0.65532054    -0.81350
O1304       O  0.95522862  0.89781165  0.61171272    -0.85550
O1305       O  0.00429102  0.93230920  0.54812831    -0.80410
O1306       O  0.60985629  0.87184080  0.68921498    -0.82180
O1307       O  0.60407863  0.97359303  0.63239822    -0.84930
C1308       C  0.51412164  0.90997571  0.52684167     0.95840
C1309       C  0.96338638  0.87267388  0.62610481     1.03280
O1310       O  0.55791962  0.91884256  0.64070454    -1.13910
O1311       O  0.55849110  0.95921749  0.71939277    -0.76340
O1312       O  0.48579858  0.93869217  0.69101807    -0.79830
O1313       O  0.52999493  0.88766757  0.54979267    -0.80520
C1314       C  0.51641402  0.94986879  0.72556723     0.94740
O1315       O  0.52214528  0.97589498  0.62186894    -0.78470
O1316       O  0.61815513  0.91136653  0.73331890    -0.83670
C1317       C  0.66957901  0.90135656  0.62513331     0.97370
C1318       C  0.62354579  0.88537405  0.72885628     1.03280
O1319       O  0.63059173  0.89411564  0.59673774    -0.79310
C1320       C  0.56406754  0.98753533  0.62365787     1.01580
Fe1321     Fe  0.77640423  0.68563699  0.88155945     1.65780
Fe1322     Fe  0.66062249  0.69079900  0.81890137     1.73250
Fe1323     Fe  0.70159845  0.63091211  0.87991620     1.54410
O1324       O  0.76374073  0.61403946  0.85828508    -0.83050
O1325       O  0.60116997  0.67139525  0.84521837    -0.81350
O1326       O  0.81530784  0.64781148  0.88880370    -0.85550
O1327       O  0.76625057  0.68230860  0.95239202    -0.80410
O1328       O  0.66068330  0.62184043  0.81131184    -0.82180
O1329       O  0.66645603  0.72359557  0.86813030    -0.84930
C1330       C  0.75642142  0.65997555  0.97368032     0.95840
C1331       C  0.80715122  0.62267367  0.87441403     1.03280
O1332       O  0.71261315  0.66884279  0.85982037    -1.13910
O1333       O  0.71202989  0.70921630  0.78112691    -0.76340
O1334       O  0.78472589  0.68869129  0.80949792    -0.79830
O1335       O  0.74054688  0.63766751  0.95073110    -0.80520
C1336       C  0.75410752  0.69986810  0.77495037     0.94740
O1337       O  0.74838898  0.72589428  0.87865148    -0.78470
O1338       O  0.65236543  0.66136803  0.76721188    -0.83670
C1339       C  0.60095747  0.65135631  0.87540146     0.97360
C1340       C  0.64698848  0.63537448  0.77167197     1.03280
O1341       O  0.63994718  0.64411291  0.90379202    -0.79310
C1342       C  0.70646826  0.73753613  0.87686775     1.01580
Fe1343     Fe  0.74406714  0.68565002  0.61897586     1.65780
Fe1344     Fe  0.85982811  0.69078743  0.68167807     1.73250
Fe1345     Fe  0.81885116  0.63091181  0.62064971     1.54410
O1346       O  0.75670265  0.61405502  0.64227665    -0.83050
O1347       O  0.91927878  0.67136527  0.65539182    -0.81350
O1348       O  0.70514788  0.64782857  0.61172677    -0.85550
O1349       O  0.75424492  0.68231613  0.54815260    -0.80410
O1350       O  0.85975934  0.62183689  0.68925965    -0.82180
O1351       O  0.85405130  0.72357508  0.63243800    -0.84930
C1352       C  0.76406042  0.65997792  0.52687167     0.95840
C1353       C  0.71329726  0.62269238  0.62613386     1.03280
O1354       O  0.80784275  0.66884328  0.64073884    -1.13910
O1355       O  0.80840936  0.70922511  0.71941441    -0.76340
O1356       O  0.73571630  0.68870643  0.69102885    -0.79830
O1357       O  0.77991374  0.63766803  0.54982872    -0.80520
C1358       C  0.76633238  0.69987503  0.72558533     0.94740
O1359       O  0.77211816  0.72590188  0.62188548    -0.78470
O1360       O  0.86802940  0.66135878  0.73337228    -0.83670
C1361       C  0.91949384  0.65133716  0.62518922     0.97360
C1362       C  0.87343394  0.63536766  0.72890620     1.03280
O1363       O  0.88050937  0.64410289  0.59678407    -0.79310
C1364       C  0.81405390  0.73752795  0.62367255     1.01580
Fe1365     Fe  0.52640663  0.57025017  0.88157869     1.65780
Fe1366     Fe  0.91063512  0.56509046  0.81889825     1.73250
Fe1367     Fe  0.95159365  0.62497493  0.87992298     1.54410
O1368       O  0.99053825  0.61822072  0.95074009    -0.83050
O1369       O  0.90238750  0.59452316  0.76720960    -0.81350
O1370       O  0.51623717  0.57357840  0.95240654    -0.85550
O1371       O  0.56530609  0.60807690  0.88882587    -0.80410
O1372       O  0.88994360  0.61176828  0.90379202    -0.82180
O1373       O  0.96205433  0.54667164  0.78113873    -0.84930
C1374       C  0.55714929  0.63321416  0.87442978     0.95840
C1375       C  0.50640801  0.59591240  0.97369221     1.03280
O1376       O  0.96261760  0.58704538  0.85982664    -1.13910
O1377       O  0.91645681  0.53229407  0.86812621    -0.76340
O1378       O  0.99839070  0.52999282  0.87866641    -0.79830
O1379       O  0.51373820  0.64184878  0.85829784    -0.80520
C1380       C  0.95646791  0.51835213  0.87687187     0.94740
O1381       O  0.53474666  0.56719511  0.80952167    -0.78470
O1382       O  0.85117516  0.58449412  0.84520343    -0.83670
C1383       C  0.89698816  0.62051485  0.77167485     0.97360
C1384       C  0.85095786  0.60452936  0.87539226     1.03280
O1385       O  0.91067555  0.63404732  0.81131743    -0.79310
C1386       C  0.00413393  0.55601926  0.77496951     1.01580
Fe1387     Fe  0.49407301  0.57023965  0.61899493     1.65780
Fe1388     Fe  0.60984601  0.56509960  0.68166971     1.73250
Fe1389     Fe  0.56884796  0.62497849  0.62065346     1.54420
O1390       O  0.52989899  0.61822193  0.54983769    -0.83050
O1391       O  0.61806865  0.59452817  0.73336168    -0.81350
O1392       O  0.50423558  0.57357342  0.54816726    -0.85550
O1393       O  0.95515102  0.60806054  0.61175147    -0.80410
O1394       O  0.63050221  0.61179179  0.59677348    -0.82180
O1395       O  0.55844088  0.54666869  0.71943174    -0.84930
C1396       C  0.96329958  0.63319644  0.62615762     0.95840
C1397       C  0.51404661  0.59591144  0.52688349     1.03280
O1398       O  0.55785083  0.58704552  0.64074364    -1.13910
O1399       O  0.60405173  0.53230951  0.63243289    -0.76340
O1400       O  0.52212010  0.52998690  0.62190029    -0.79830
O1401       O  0.50670490  0.64183353  0.64229582    -0.80520
C1402       C  0.56405288  0.51835868  0.62367679     0.94740
O1403       O  0.98573993  0.56718363  0.69105135    -0.78470
O1404       O  0.66928460  0.58451819  0.65536006    -0.83670
C1405       C  0.62344980  0.62052112  0.72890023     0.97370
C1406       C  0.66949184  0.60455226  0.62516702     1.03280
O1407       O  0.60976258  0.63405355  0.68925749    -0.79310
C1408       C  0.51636156  0.55601607  0.72560532     1.01580
loop_ 
_geom_bond_atom_site_label_1 
_geom_bond_atom_site_label_2 
_geom_bond_distance 
_geom_bond_site_symmetry_2 
_ccdc_geom_bond_type 
Fe1          O17   2.074       .  S
Fe1           O7   2.089       .  S
Fe1          O14   2.066       .  S
Fe1           O6   2.055       .  S
Fe1          O12   1.922       .  S
Fe2           O5   1.999       .  S
Fe2           O9   2.101       .  S
Fe2          O13   2.072       .  S
Fe2          O18   2.120       .  S
Fe2          O12   1.964       .  S
Fe3          O21   2.087       .  S
Fe3           O8   2.028       .  S
Fe3          O15   2.072       .  S
Fe3           O4   2.099       .  S
Fe3          O12   1.935       .  S
O4           C11   1.279       .  A
O5           C19   1.258       .  A
O6           C11   1.273       .  A
O7           C10   1.272       .  A
O8           C20   1.261       .  A
O9           C22   1.278       .  A
C10          O15   1.265       .  A
C10          C63   1.478       .  S
C11         C209   1.464       .  S
O13          C16   1.270       .  A
O14          C16   1.271       .  A
C16         C110   1.471       .  S
O17          C22   1.278       .  A
O18          C20   1.276       .  A
C19          O21   1.280       .  A
C19          C86   1.440       .  S
C20          C55   1.478       .  S
C22          C44   1.478       .  S
Fe23         O39   2.074       .  S
Fe23         O29   2.089       .  S
Fe23         O36   2.066       .  S
Fe23         O28   2.055       .  S
Fe23         O34   1.922       .  S
Fe24         O27   1.999       .  S
Fe24         O31   2.101       .  S
Fe24         O35   2.072       .  S
Fe24         O40   2.120       .  S
Fe24         O34   1.964       .  S
Fe25         O43   2.087       .  S
Fe25         O30   2.028       .  S
Fe25         O37   2.072       .  S
Fe25         O26   2.099       .  S
Fe25         O34   1.935       .  S
O26          C33   1.279       .  A
O27          C41   1.258       .  A
O28          C33   1.273       .  A
O29          C32   1.272       .  A
O30          C42   1.261       .  A
O31          C44   1.278       .  A
C32          O37   1.265       .  A
C32          C85   1.478       .  S
C33         C187   1.464   1_554  S
O35          C38   1.270       .  A
O36          C38   1.271       .  A
C38         C132   1.471       .  S
O39          C44   1.278       .  A
O40          C42   1.276       .  A
C41          O43   1.280       .  A
C41          C64   1.440       .  S
C42          C77   1.478       .  S
Fe45         O51   2.055       .  S
Fe45         O58   2.074       .  S
Fe45         O50   2.089       .  S
Fe45        O765   2.066   1_455  S
Fe45        O760   1.922   1_455  S
Fe46         O49   2.120       .  S
Fe46         O53   2.072       .  S
Fe46         O57   2.101       .  S
Fe46         O62   1.999       .  S
Fe46         O56   1.964       .  S
Fe47         O65   2.028       .  S
Fe47         O52   2.087       .  S
Fe47         O59   2.099       .  S
Fe47        O752   2.072       .  S
Fe47         O56   1.935       .  S
O48        Fe751   2.072   1_455  S
O48          C55   1.265       .  A
O49          C63   1.276       .  A
O50          C55   1.272       .  A
O51         C758   1.273       .  A
O52          C64   1.280       .  A
O53          C66   1.270       .  A
C54          O59   1.279       .  A
C54         O755   1.273       .  A
C54         C956   1.464       .  S
O56        Fe749   1.922       .  S
O57          C60   1.278       .  A
O58         C764   1.278       .  A
C60         O762   1.278       .  A
C60         C786   1.478       .  S
O61        Fe749   2.066       .  S
O61          C66   1.271       .  A
O62          C64   1.258       .  A
C63          O65   1.261       .  A
C66         C500   1.471       .  S
Fe67         O83   2.066   1_655  S
Fe67         O80   2.074       .  S
Fe67        O777   2.055   1_655  S
Fe67        O776   2.089       .  S
Fe67         O78   1.922   1_655  S
Fe68         O71   2.120       .  S
Fe68         O75   2.072       .  S
Fe68         O79   2.101       .  S
Fe68         O84   1.999       .  S
Fe68         O78   1.964       .  S
Fe69         O87   2.028       .  S
Fe69         O74   2.087       .  S
Fe69         O81   2.099       .  S
Fe69        O774   2.072       .  S
Fe69         O78   1.935       .  S
O70        Fe773   2.072       .  S
O70          C77   1.265       .  A
O71          C85   1.276       .  A
O72        Fe771   2.089       .  S
O72          C77   1.272       .  A
O73        Fe771   2.055       .  S
O73         C780   1.273       .  A
O74          C86   1.280       .  A
O75          C88   1.270       .  A
C76          O81   1.279       .  A
C76         O777   1.273       .  A
C76         C934   1.464   1_554  S
O79          C82   1.278       .  A
O80          C82   1.278   1_655  A
C82         C764   1.478       .  S
O83          C88   1.271       .  A
O84          C86   1.258       .  A
C85          O87   1.261       .  A
C88         C522   1.471       .  S
Fe89        O105   2.066       .  S
Fe89         O95   2.055       .  S
Fe89        O102   2.074       .  S
Fe89         O94   2.089       .  S
Fe89        O100   1.922       .  S
Fe90         O93   2.120       .  S
Fe90         O97   2.072       .  S
Fe90        O101   2.101       .  S
Fe90        O106   1.999       .  S
Fe90        O100   1.964       .  S
Fe91        O109   2.028       .  S
Fe91         O96   2.087       .  S
Fe91        O103   2.099       .  S
Fe91         O92   2.072       .  S
Fe91        O100   1.935       .  S
O92          C99   1.265       .  A
O93         C107   1.276       .  A
O94          C99   1.272       .  A
O95          C98   1.273       .  A
O96         C108   1.280       .  A
O97         C110   1.270       .  A
C98         O103   1.279       .  A
C98         C296   1.464       .  S
C99         C152   1.478       .  S
O101        C104   1.278       .  A
O102        C104   1.278       .  A
C104        C126   1.478       .  S
O105        C110   1.271       .  A
O106        C108   1.258       .  A
C107        O109   1.261       .  A
C107        C142   1.478       .  S
C108        C173   1.440       .  S
Fe111       O127   2.066       .  S
Fe111       O117   2.055       .  S
Fe111       O124   2.074       .  S
Fe111       O116   2.089       .  S
Fe111       O122   1.922       .  S
Fe112       O115   2.120       .  S
Fe112       O119   2.072       .  S
Fe112       O123   2.101       .  S
Fe112       O128   1.999       .  S
Fe112       O122   1.964       .  S
Fe113       O131   2.028       .  S
Fe113       O118   2.087       .  S
Fe113       O125   2.099       .  S
Fe113       O114   2.072       .  S
Fe113       O122   1.935       .  S
O114        C121   1.265       .  A
O115        C129   1.276       .  A
O116        C121   1.272       .  A
O117        C120   1.273       .  A
O118        C130   1.280       .  A
O119        C132   1.270       .  A
C120        O125   1.279       .  A
C120        C274   1.464   1_554  S
C121        C174   1.478       .  S
O123        C126   1.278       .  A
O124        C126   1.278       .  A
O127        C132   1.271       .  A
O128        C130   1.258       .  A
C129        O131   1.261       .  A
C129        C164   1.478       .  S
C130        C151   1.440       .  S
Fe133       O149   2.074       .  S
Fe133       O139   2.089       .  S
Fe133       O138   2.055       .  S
Fe133       O850   2.066   1_455  S
Fe133       O848   1.922   1_455  S
Fe134       O137   1.999       .  S
Fe134       O141   2.101       .  S
Fe134       O145   2.072       .  S
Fe134       O150   2.120       .  S
Fe134       O144   1.964       .  S
Fe135       O153   2.087       .  S
Fe135       O140   2.028       .  S
Fe135       O136   2.099       .  S
Fe135       O851   2.072       .  S
Fe135       O144   1.935       .  S
O136        C847   1.279       .  A
O137        C151   1.258       .  A
O138        C143   1.273       .  A
O139        C142   1.272       .  A
O140        C152   1.261       .  A
O141        C154   1.278       .  A
C142        O147   1.265       .  A
C143        O840   1.279   1_455  A
C143        C341   1.464       .  S
O144       Fe837   1.922       .  S
O145        C148   1.270       .  A
O146       Fe837   2.066       .  S
O146        C148   1.271       .  A
O147       Fe839   2.072   1_455  S
C148        C418   1.471   1_545  S
O149        C858   1.278       .  A
O150        C152   1.276       .  A
C151        O153   1.280       .  A
C154        O853   1.278       .  A
C154        C880   1.478       .  S
Fe155       O168   2.066   1_655  S
Fe155       O160   2.055   1_655  S
Fe155       O875   2.074       .  S
Fe155       O865   2.089       .  S
Fe155       O166   1.922   1_655  S
Fe156       O159   1.999       .  S
Fe156       O163   2.101       .  S
Fe156       O167   2.072       .  S
Fe156       O172   2.120       .  S
Fe156       O166   1.964       .  S
Fe157       O175   2.087       .  S
Fe157       O162   2.028       .  S
Fe157       O169   2.072       .  S
Fe157       O158   2.099       .  S
Fe157       O166   1.935       .  S
O158        C165   1.279       .  A
O159        C173   1.258       .  A
O160        C165   1.273       .  A
O161       Fe859   2.089       .  S
O161        C164   1.272       .  A
O162        C174   1.261       .  A
O163        C176   1.278       .  A
C164        O873   1.265       .  A
C165        C319   1.464   1_554  S
O167        C170   1.270       .  A
O168        C170   1.271       .  A
O169        C868   1.265   1_455  A
C170        C440   1.471   1_545  S
O171       Fe859   2.074       .  S
O171        C880   1.278       .  A
O172        C174   1.276       .  A
C173        O175   1.280       .  A
C176        O875   1.278   1_455  A
C176        C858   1.478       .  S
Fe177       O193   2.074       .  S
Fe177       O183   2.089       .  S
Fe177       O190   2.066       .  S
Fe177       O182   2.055       .  S
Fe177       O188   1.922       .  S
Fe178       O181   1.999       .  S
Fe178       O185   2.101       .  S
Fe178       O189   2.072       .  S
Fe178       O194   2.120       .  S
Fe178       O188   1.964       .  S
Fe179       O197   2.087       .  S
Fe179       O184   2.028       .  S
Fe179       O191   2.072       .  S
Fe179       O180   2.099       .  S
Fe179       O188   1.935       .  S
O180        C187   1.279       .  A
O181        C195   1.258       .  A
O182        C187   1.273       .  A
O183        C186   1.272       .  A
O184        C196   1.261       .  A
O185        C198   1.278       .  A
C186        O191   1.265       .  A
C186        C239   1.478       .  S
O189        C192   1.270       .  A
O190        C192   1.271       .  A
C192        C286   1.471       .  S
O193        C198   1.278       .  A
O194        C196   1.276       .  A
C195        O197   1.280       .  A
C195        C262   1.440       .  S
C196        C231   1.478       .  S
C198        C220   1.478       .  S
Fe199       O215   2.074       .  S
Fe199       O205   2.089       .  S
Fe199       O212   2.066       .  S
Fe199       O204   2.055       .  S
Fe199       O210   1.922       .  S
Fe200       O203   1.999       .  S
Fe200       O207   2.101       .  S
Fe200       O211   2.072       .  S
Fe200       O216   2.120       .  S
Fe200       O210   1.964       .  S
Fe201       O219   2.087       .  S
Fe201       O206   2.028       .  S
Fe201       O213   2.072       .  S
Fe201       O202   2.099       .  S
Fe201       O210   1.935       .  S
O202        C209   1.279       .  A
O203        C217   1.258       .  A
O204        C209   1.273       .  A
O205        C208   1.272       .  A
O206        C218   1.261       .  A
O207        C220   1.278       .  A
C208        O213   1.265       .  A
C208        C261   1.478       .  S
O211        C214   1.270       .  A
O212        C214   1.271       .  A
C214        C308   1.471       .  S
O215        C220   1.278       .  A
O216        C218   1.276       .  A
C217        O219   1.280       .  A
C217        C240   1.440       .  S
C218        C253   1.478       .  S
Fe221       O941   2.066   1_455  S
Fe221       O227   2.055       .  S
Fe221       O234   2.074       .  S
Fe221       O226   2.089       .  S
Fe221       O936   1.922   1_455  S
Fe222       O225   2.120       .  S
Fe222       O229   2.072       .  S
Fe222       O233   2.101       .  S
Fe222       O238   1.999       .  S
Fe222       O232   1.964       .  S
Fe223       O241   2.028       .  S
Fe223       O228   2.087       .  S
Fe223       O235   2.099       .  S
Fe223       O928   2.072       .  S
Fe223       O232   1.935       .  S
O224       Fe927   2.072   1_455  S
O224        C231   1.265       .  A
O225        C239   1.276       .  A
O226        C231   1.272       .  A
O227        C934   1.273       .  A
O228        C240   1.280       .  A
O229        C242   1.270       .  A
C230        O931   1.273       .  A
C230        O235   1.279       .  A
C230        C780   1.464   1_556  S
O232       Fe925   1.922       .  S
O233        C236   1.278       .  A
O234        C940   1.278       .  A
C236        O938   1.278       .  A
C236        C962   1.478       .  S
O237       Fe925   2.066       .  S
O237        C242   1.271       .  A
O238        C240   1.258       .  A
C239        O241   1.261       .  A
C242        C676   1.471       .  S
Fe243       O259   2.066   1_655  S
Fe243       O953   2.055   1_655  S
Fe243       O256   2.074       .  S
Fe243       O952   2.089       .  S
Fe243       O254   1.922   1_655  S
Fe244       O247   2.120       .  S
Fe244       O251   2.072       .  S
Fe244       O255   2.101       .  S
Fe244       O260   1.999       .  S
Fe244       O254   1.964       .  S
Fe245       O263   2.028       .  S
Fe245       O250   2.087       .  S
Fe245       O257   2.099       .  S
Fe245       O950   2.072       .  S
Fe245       O254   1.935       .  S
O246       Fe949   2.072       .  S
O246        C253   1.265       .  A
O247        C261   1.276       .  A
O248       Fe947   2.089       .  S
O248        C253   1.272       .  A
O249       Fe947   2.055       .  S
O249        C956   1.273       .  A
O250        C262   1.280       .  A
O251        C264   1.270       .  A
C252        O953   1.273       .  A
C252        O257   1.279       .  A
C252        C758   1.464       .  S
O255        C258   1.278       .  A
O256        C258   1.278   1_655  A
C258        C940   1.478       .  S
O259        C264   1.271       .  A
O260        C262   1.258       .  A
C261        O263   1.261       .  A
C264        C698   1.471       .  S
Fe265       O281   2.066       .  S
Fe265       O271   2.055       .  S
Fe265       O278   2.074       .  S
Fe265       O270   2.089       .  S
Fe265       O276   1.922       .  S
Fe266       O269   2.120       .  S
Fe266       O273   2.072       .  S
Fe266       O277   2.101       .  S
Fe266       O282   1.999       .  S
Fe266       O276   1.964       .  S
Fe267       O285   2.028       .  S
Fe267       O272   2.087       .  S
Fe267       O279   2.099       .  S
Fe267       O268   2.072       .  S
Fe267       O276   1.935       .  S
O268        C275   1.265       .  A
O269        C283   1.276       .  A
O270        C275   1.272       .  A
O271        C274   1.273       .  A
O272        C284   1.280       .  A
O273        C286   1.270       .  A
C274        O279   1.279       .  A
C275        C328   1.478       .  S
O277        C280   1.278       .  A
O278        C280   1.278       .  A
C280        C302   1.478       .  S
O281        C286   1.271       .  A
O282        C284   1.258       .  A
C283        O285   1.261       .  A
C283        C318   1.478       .  S
C284        C349   1.440       .  S
Fe287       O303   2.066       .  S
Fe287       O293   2.055       .  S
Fe287       O300   2.074       .  S
Fe287       O292   2.089       .  S
Fe287       O298   1.922       .  S
Fe288       O291   2.120       .  S
Fe288       O295   2.072       .  S
Fe288       O299   2.101       .  S
Fe288       O304   1.999       .  S
Fe288       O298   1.964       .  S
Fe289       O307   2.028       .  S
Fe289       O294   2.087       .  S
Fe289       O301   2.099       .  S
Fe289       O290   2.072       .  S
Fe289       O298   1.935       .  S
O290        C297   1.265       .  A
O291        C305   1.276       .  A
O292        C297   1.272       .  A
O293        C296   1.273       .  A
O294        C306   1.280       .  A
O295        C308   1.270       .  A
C296        O301   1.279       .  A
C297        C350   1.478       .  S
O299        C302   1.278       .  A
O300        C302   1.278       .  A
O303        C308   1.271       .  A
O304        C306   1.258       .  A
C305        O307   1.261       .  A
C305        C340   1.478       .  S
C306        C327   1.440       .  S
Fe309       O325   2.074       .  S
Fe309       O315   2.089       .  S
Fe309      O1026   2.066   1_455  S
Fe309       O314   2.055       .  S
Fe309      O1024   1.922   1_455  S
Fe310       O313   1.999       .  S
Fe310       O317   2.101       .  S
Fe310       O321   2.072       .  S
Fe310       O326   2.120       .  S
Fe310       O320   1.964       .  S
Fe311       O329   2.087       .  S
Fe311       O316   2.028       .  S
Fe311      O1027   2.072       .  S
Fe311       O312   2.099       .  S
Fe311       O320   1.935       .  S
O312       C1023   1.279       .  A
O313        C327   1.258       .  A
O314        C319   1.273       .  A
O315        C318   1.272       .  A
O316        C328   1.261       .  A
O317        C330   1.278       .  A
C318        O323   1.265       .  A
C319       O1016   1.279   1_455  A
O320      Fe1013   1.922       .  S
O321        C324   1.270       .  A
O322      Fe1013   2.066       .  S
O322        C324   1.271       .  A
O323      Fe1015   2.072   1_455  S
C324        C594   1.471   1_545  S
O325       C1034   1.278       .  A
O326        C328   1.276       .  A
C327        O329   1.280       .  A
C330       O1029   1.278       .  A
C330       C1056   1.478       .  S
Fe331      O1051   2.074       .  S
Fe331      O1041   2.089       .  S
Fe331       O344   2.066   1_655  S
Fe331       O336   2.055   1_655  S
Fe331       O342   1.922   1_655  S
Fe332       O335   1.999       .  S
Fe332       O339   2.101       .  S
Fe332       O343   2.072       .  S
Fe332       O348   2.120       .  S
Fe332       O342   1.964       .  S
Fe333       O351   2.087       .  S
Fe333       O338   2.028       .  S
Fe333       O345   2.072       .  S
Fe333       O334   2.099       .  S
Fe333       O342   1.935       .  S
O334        C341   1.279       .  A
O335        C349   1.258       .  A
O336        C341   1.273       .  A
O337      Fe1035   2.089       .  S
O337        C340   1.272       .  A
O338        C350   1.261       .  A
O339        C352   1.278       .  A
C340       O1049   1.265       .  A
O343        C346   1.270       .  A
O344        C346   1.271       .  A
O345       C1044   1.265   1_455  A
C346        C616   1.471   1_545  S
O347      Fe1035   2.074       .  S
O347       C1056   1.278       .  A
O348        C350   1.276       .  A
C349        O351   1.280       .  A
C352       O1051   1.278   1_455  A
C352       C1034   1.478       .  S
Fe353       O369   2.074       .  S
Fe353       O359   2.089       .  S
Fe353       O366   2.066       .  S
Fe353       O358   2.055       .  S
Fe353       O364   1.922       .  S
Fe354       O357   1.999       .  S
Fe354       O361   2.101       .  S
Fe354       O365   2.072       .  S
Fe354       O370   2.120       .  S
Fe354       O364   1.964       .  S
Fe355       O373   2.087       .  S
Fe355       O360   2.028       .  S
Fe355       O367   2.072       .  S
Fe355       O356   2.099       .  S
Fe355       O364   1.935       .  S
O356        C363   1.279       .  A
O357        C371   1.258       .  A
O358        C363   1.273       .  A
O359        C362   1.272       .  A
O360        C372   1.261       .  A
O361        C374   1.278       .  A
C362        O367   1.265       .  A
C362        C415   1.478       .  S
C363        C561   1.464       .  S
O365        C368   1.270       .  A
O366        C368   1.271       .  A
C368        C462   1.471       .  S
O369        C374   1.278       .  A
O370        C372   1.276       .  A
C371        O373   1.280       .  A
C371        C438   1.440       .  S
C372        C407   1.478       .  S
C374        C396   1.478       .  S
Fe375       O391   2.074       .  S
Fe375       O381   2.089       .  S
Fe375       O388   2.066       .  S
Fe375       O380   2.055       .  S
Fe375       O386   1.922       .  S
Fe376       O379   1.999       .  S
Fe376       O383   2.101       .  S
Fe376       O387   2.072       .  S
Fe376       O392   2.120       .  S
Fe376       O386   1.964       .  S
Fe377       O395   2.087       .  S
Fe377       O382   2.028       .  S
Fe377       O389   2.072       .  S
Fe377       O378   2.099       .  S
Fe377       O386   1.935       .  S
O378        C385   1.279       .  A
O379        C393   1.258       .  A
O380        C385   1.273       .  A
O381        C384   1.272       .  A
O382        C394   1.261       .  A
O383        C396   1.278       .  A
C384        O389   1.265       .  A
C384        C437   1.478       .  S
C385        C539   1.464   1_554  S
O387        C390   1.270       .  A
O388        C390   1.271       .  A
C390        C484   1.471       .  S
O391        C396   1.278       .  A
O392        C394   1.276       .  A
C393        O395   1.280       .  A
C393        C416   1.440       .  S
C394        C429   1.478       .  S
Fe397      O1117   2.066   1_455  S
Fe397       O403   2.055       .  S
Fe397       O410   2.074       .  S
Fe397       O402   2.089       .  S
Fe397      O1112   1.922   1_455  S
Fe398       O401   2.120       .  S
Fe398       O405   2.072       .  S
Fe398       O409   2.101       .  S
Fe398       O414   1.999       .  S
Fe398       O408   1.964       .  S
Fe399       O417   2.028       .  S
Fe399       O404   2.087       .  S
Fe399       O411   2.099       .  S
Fe399      O1104   2.072       .  S
Fe399       O408   1.935       .  S
O400      Fe1103   2.072   1_455  S
O400        C407   1.265       .  A
O401        C415   1.276       .  A
O402        C407   1.272       .  A
O403       C1110   1.273       .  A
O404        C416   1.280       .  A
O405        C418   1.270       .  A
C406       O1107   1.273       .  A
C406        O411   1.279       .  A
C406       C1308   1.464       .  S
O408      Fe1101   1.922       .  S
O409        C412   1.278       .  A
O410       C1116   1.278       .  A
C412       O1114   1.278       .  A
C412       C1138   1.478       .  S
O413      Fe1101   2.066       .  S
O413        C418   1.271       .  A
O414        C416   1.258       .  A
C415        O417   1.261       .  A
Fe419       O435   2.066   1_655  S
Fe419      O1129   2.055   1_655  S
Fe419       O432   2.074       .  S
Fe419      O1128   2.089       .  S
Fe419       O430   1.922   1_655  S
Fe420       O423   2.120       .  S
Fe420       O427   2.072       .  S
Fe420       O431   2.101       .  S
Fe420       O436   1.999       .  S
Fe420       O430   1.964       .  S
Fe421       O439   2.028       .  S
Fe421       O426   2.087       .  S
Fe421       O433   2.099       .  S
Fe421      O1126   2.072       .  S
Fe421       O430   1.935       .  S
O422      Fe1125   2.072       .  S
O422        C429   1.265       .  A
O423        C437   1.276       .  A
O424      Fe1123   2.089       .  S
O424        C429   1.272       .  A
O425      Fe1123   2.055       .  S
O425       C1132   1.273       .  A
O426        C438   1.280       .  A
O427        C440   1.270       .  A
C428       O1129   1.273       .  A
C428        O433   1.279       .  A
C428       C1286   1.464   1_554  S
O431        C434   1.278       .  A
O432        C434   1.278   1_655  A
C434       C1116   1.478       .  S
O435        C440   1.271       .  A
O436        C438   1.258       .  A
C437        O439   1.261       .  A
Fe441       O457   2.066       .  S
Fe441       O447   2.055       .  S
Fe441       O454   2.074       .  S
Fe441       O446   2.089       .  S
Fe441       O452   1.922       .  S
Fe442       O445   2.120       .  S
Fe442       O449   2.072       .  S
Fe442       O453   2.101       .  S
Fe442       O458   1.999       .  S
Fe442       O452   1.964       .  S
Fe443       O461   2.028       .  S
Fe443       O448   2.087       .  S
Fe443       O455   2.099       .  S
Fe443       O444   2.072       .  S
Fe443       O452   1.935       .  S
O444        C451   1.265       .  A
O445        C459   1.276       .  A
O446        C451   1.272       .  A
O447        C450   1.273       .  A
O448        C460   1.280       .  A
O449        C462   1.270       .  A
C450        O455   1.279       .  A
C450        C648   1.464       .  S
C451        C504   1.478       .  S
O453        C456   1.278       .  A
O454        C456   1.278       .  A
C456        C478   1.478       .  S
O457        C462   1.271       .  A
O458        C460   1.258       .  A
C459        O461   1.261       .  A
C459        C494   1.478       .  S
C460        C525   1.440       .  S
Fe463       O479   2.066       .  S
Fe463       O469   2.055       .  S
Fe463       O476   2.074       .  S
Fe463       O468   2.089       .  S
Fe463       O474   1.922       .  S
Fe464       O467   2.120       .  S
Fe464       O471   2.072       .  S
Fe464       O475   2.101       .  S
Fe464       O480   1.999       .  S
Fe464       O474   1.964       .  S
Fe465       O483   2.028       .  S
Fe465       O470   2.087       .  S
Fe465       O477   2.099       .  S
Fe465       O466   2.072       .  S
Fe465       O474   1.935       .  S
O466        C473   1.265       .  A
O467        C481   1.276       .  A
O468        C473   1.272       .  A
O469        C472   1.273       .  A
O470        C482   1.280       .  A
O471        C484   1.270       .  A
C472        O477   1.279       .  A
C472        C626   1.464   1_554  S
C473        C526   1.478       .  S
O475        C478   1.278       .  A
O476        C478   1.278       .  A
O479        C484   1.271       .  A
O480        C482   1.258       .  A
C481        O483   1.261       .  A
C481        C516   1.478       .  S
C482        C503   1.440       .  S
Fe485       O501   2.074       .  S
Fe485       O491   2.089       .  S
Fe485      O1202   2.066   1_455  S
Fe485       O490   2.055       .  S
Fe485      O1200   1.922   1_455  S
Fe486       O489   1.999       .  S
Fe486       O493   2.101       .  S
Fe486       O497   2.072       .  S
Fe486       O502   2.120       .  S
Fe486       O496   1.964       .  S
Fe487       O505   2.087       .  S
Fe487       O492   2.028       .  S
Fe487      O1203   2.072       .  S
Fe487       O488   2.099       .  S
Fe487       O496   1.935       .  S
O488       C1199   1.279       .  A
O489        C503   1.258       .  A
O490        C495   1.273       .  A
O491        C494   1.272       .  A
O492        C504   1.261       .  A
O493        C506   1.278       .  A
C494        O499   1.265       .  A
C495       O1192   1.279   1_455  A
C495        C693   1.464       .  S
O496      Fe1189   1.922       .  S
O497        C500   1.270       .  A
O498      Fe1189   2.066       .  S
O498        C500   1.271       .  A
O499      Fe1191   2.072   1_455  S
O501       C1210   1.278       .  A
O502        C504   1.276       .  A
C503        O505   1.280       .  A
C506       O1205   1.278       .  A
C506       C1232   1.478       .  S
Fe507      O1227   2.074       .  S
Fe507      O1217   2.089       .  S
Fe507       O520   2.066   1_655  S
Fe507       O512   2.055   1_655  S
Fe507       O518   1.922   1_655  S
Fe508       O511   1.999       .  S
Fe508       O515   2.101       .  S
Fe508       O519   2.072       .  S
Fe508       O524   2.120       .  S
Fe508       O518   1.964       .  S
Fe509       O527   2.087       .  S
Fe509       O514   2.028       .  S
Fe509       O521   2.072       .  S
Fe509       O510   2.099       .  S
Fe509       O518   1.935       .  S
O510        C517   1.279       .  A
O511        C525   1.258       .  A
O512        C517   1.273       .  A
O513      Fe1211   2.089       .  S
O513        C516   1.272       .  A
O514        C526   1.261       .  A
O515        C528   1.278       .  A
C516       O1225   1.265       .  A
C517        C671   1.464   1_554  S
O519        C522   1.270       .  A
O520        C522   1.271       .  A
O521       C1220   1.265   1_455  A
O523      Fe1211   2.074       .  S
O523       C1232   1.278       .  A
O524        C526   1.276       .  A
C525        O527   1.280       .  A
C528       O1227   1.278   1_455  A
C528       C1210   1.478       .  S
Fe529       O545   2.074       .  S
Fe529       O535   2.089       .  S
Fe529       O542   2.066       .  S
Fe529       O534   2.055       .  S
Fe529       O540   1.922       .  S
Fe530       O533   1.999       .  S
Fe530       O537   2.101       .  S
Fe530       O541   2.072       .  S
Fe530       O546   2.120       .  S
Fe530       O540   1.964       .  S
Fe531       O549   2.087       .  S
Fe531       O536   2.028       .  S
Fe531       O543   2.072       .  S
Fe531       O532   2.099       .  S
Fe531       O540   1.935       .  S
O532        C539   1.279       .  A
O533        C547   1.258       .  A
O534        C539   1.273       .  A
O535        C538   1.272       .  A
O536        C548   1.261       .  A
O537        C550   1.278       .  A
C538        O543   1.265       .  A
C538        C591   1.478       .  S
O541        C544   1.270       .  A
O542        C544   1.271       .  A
C544        C638   1.471       .  S
O545        C550   1.278       .  A
O546        C548   1.276       .  A
C547        O549   1.280       .  A
C547        C614   1.440       .  S
C548        C583   1.478       .  S
C550        C572   1.478       .  S
Fe551       O567   2.074       .  S
Fe551       O557   2.089       .  S
Fe551       O564   2.066       .  S
Fe551       O556   2.055       .  S
Fe551       O562   1.922       .  S
Fe552       O555   1.999       .  S
Fe552       O559   2.101       .  S
Fe552       O563   2.072       .  S
Fe552       O568   2.120       .  S
Fe552       O562   1.964       .  S
Fe553       O571   2.087       .  S
Fe553       O558   2.028       .  S
Fe553       O565   2.072       .  S
Fe553       O554   2.099       .  S
Fe553       O562   1.935       .  S
O554        C561   1.279       .  A
O555        C569   1.258       .  A
O556        C561   1.273       .  A
O557        C560   1.272       .  A
O558        C570   1.261       .  A
O559        C572   1.278       .  A
C560        O565   1.265       .  A
C560        C613   1.478       .  S
O563        C566   1.270       .  A
O564        C566   1.271       .  A
C566        C660   1.471       .  S
O567        C572   1.278       .  A
O568        C570   1.276       .  A
C569        O571   1.280       .  A
C569        C592   1.440       .  S
C570        C605   1.478       .  S
Fe573      O1293   2.066   1_455  S
Fe573       O579   2.055       .  S
Fe573       O586   2.074       .  S
Fe573       O578   2.089       .  S
Fe573      O1288   1.922   1_455  S
Fe574       O577   2.120       .  S
Fe574       O581   2.072       .  S
Fe574       O585   2.101       .  S
Fe574       O590   1.999       .  S
Fe574       O584   1.964       .  S
Fe575       O593   2.028       .  S
Fe575       O580   2.087       .  S
Fe575       O587   2.099       .  S
Fe575      O1280   2.072       .  S
Fe575       O584   1.935       .  S
O576      Fe1279   2.072   1_455  S
O576        C583   1.265       .  A
O577        C591   1.276       .  A
O578        C583   1.272       .  A
O579       C1286   1.273       .  A
O580        C592   1.280       .  A
O581        C594   1.270       .  A
C582       O1283   1.273       .  A
C582        O587   1.279       .  A
C582       C1132   1.464   1_556  S
O584      Fe1277   1.922       .  S
O585        C588   1.278       .  A
O586       C1292   1.278       .  A
C588       O1290   1.278       .  A
C588       C1314   1.478       .  S
O589      Fe1277   2.066       .  S
O589        C594   1.271       .  A
O590        C592   1.258       .  A
C591        O593   1.261       .  A
Fe595       O611   2.066   1_655  S
Fe595      O1305   2.055   1_655  S
Fe595       O608   2.074       .  S
Fe595      O1304   2.089       .  S
Fe595       O606   1.922   1_655  S
Fe596       O599   2.120       .  S
Fe596       O603   2.072       .  S
Fe596       O607   2.101       .  S
Fe596       O612   1.999       .  S
Fe596       O606   1.964       .  S
Fe597       O615   2.028       .  S
Fe597       O602   2.087       .  S
Fe597       O609   2.099       .  S
Fe597      O1302   2.072       .  S
Fe597       O606   1.935       .  S
O598      Fe1301   2.072       .  S
O598        C605   1.265       .  A
O599        C613   1.276       .  A
O600      Fe1299   2.089       .  S
O600        C605   1.272       .  A
O601      Fe1299   2.055       .  S
O601       C1308   1.273       .  A
O602        C614   1.280       .  A
O603        C616   1.270       .  A
C604       O1305   1.273       .  A
C604        O609   1.279       .  A
C604       C1110   1.464       .  S
O607        C610   1.278       .  A
O608        C610   1.278   1_655  A
C610       C1292   1.478       .  S
O611        C616   1.271       .  A
O612        C614   1.258       .  A
C613        O615   1.261       .  A
Fe617       O633   2.066       .  S
Fe617       O623   2.055       .  S
Fe617       O630   2.074       .  S
Fe617       O622   2.089       .  S
Fe617       O628   1.922       .  S
Fe618       O621   2.120       .  S
Fe618       O625   2.072       .  S
Fe618       O629   2.101       .  S
Fe618       O634   1.999       .  S
Fe618       O628   1.964       .  S
Fe619       O637   2.028       .  S
Fe619       O624   2.087       .  S
Fe619       O631   2.099       .  S
Fe619       O620   2.072       .  S
Fe619       O628   1.935       .  S
O620        C627   1.265       .  A
O621        C635   1.276       .  A
O622        C627   1.272       .  A
O623        C626   1.273       .  A
O624        C636   1.280       .  A
O625        C638   1.270       .  A
C626        O631   1.279       .  A
C627        C680   1.478       .  S
O629        C632   1.278       .  A
O630        C632   1.278       .  A
C632        C654   1.478       .  S
O633        C638   1.271       .  A
O634        C636   1.258       .  A
C635        O637   1.261       .  A
C635        C670   1.478       .  S
C636        C701   1.440       .  S
Fe639       O655   2.066       .  S
Fe639       O645   2.055       .  S
Fe639       O652   2.074       .  S
Fe639       O644   2.089       .  S
Fe639       O650   1.922       .  S
Fe640       O643   2.120       .  S
Fe640       O647   2.072       .  S
Fe640       O651   2.101       .  S
Fe640       O656   1.999       .  S
Fe640       O650   1.964       .  S
Fe641       O659   2.028       .  S
Fe641       O646   2.087       .  S
Fe641       O653   2.099       .  S
Fe641       O642   2.072       .  S
Fe641       O650   1.935       .  S
O642        C649   1.265       .  A
O643        C657   1.276       .  A
O644        C649   1.272       .  A
O645        C648   1.273       .  A
O646        C658   1.280       .  A
O647        C660   1.270       .  A
C648        O653   1.279       .  A
C649        C702   1.478       .  S
O651        C654   1.278       .  A
O652        C654   1.278       .  A
O655        C660   1.271       .  A
O656        C658   1.258       .  A
C657        O659   1.261       .  A
C657        C692   1.478       .  S
C658        C679   1.440       .  S
Fe661       O677   2.074       .  S
Fe661       O667   2.089       .  S
Fe661      O1378   2.066   1_455  S
Fe661       O666   2.055       .  S
Fe661      O1376   1.922   1_455  S
Fe662       O665   1.999       .  S
Fe662       O669   2.101       .  S
Fe662       O673   2.072       .  S
Fe662       O678   2.120       .  S
Fe662       O672   1.964       .  S
Fe663       O681   2.087       .  S
Fe663       O668   2.028       .  S
Fe663      O1379   2.072       .  S
Fe663       O664   2.099       .  S
Fe663       O672   1.935       .  S
O664       C1375   1.279       .  A
O665        C679   1.258       .  A
O666        C671   1.273       .  A
O667        C670   1.272       .  A
O668        C680   1.261       .  A
O669        C682   1.278       .  A
C670        O675   1.265       .  A
C671       O1368   1.279   1_455  A
O672      Fe1365   1.922       .  S
O673        C676   1.270       .  A
O674      Fe1365   2.066       .  S
O674        C676   1.271       .  A
O675      Fe1367   2.072   1_455  S
O677       C1386   1.278       .  A
O678        C680   1.276       .  A
C679        O681   1.280       .  A
C682       O1381   1.278       .  A
C682       C1408   1.478       .  S
Fe683      O1403   2.074       .  S
Fe683      O1393   2.089       .  S
Fe683       O696   2.066   1_655  S
Fe683       O688   2.055   1_655  S
Fe683       O694   1.922   1_655  S
Fe684       O687   1.999       .  S
Fe684       O691   2.101       .  S
Fe684       O695   2.072       .  S
Fe684       O700   2.120       .  S
Fe684       O694   1.964       .  S
Fe685       O703   2.087       .  S
Fe685       O690   2.028       .  S
Fe685       O697   2.072       .  S
Fe685       O686   2.099       .  S
Fe685       O694   1.935       .  S
O686        C693   1.279       .  A
O687        C701   1.258       .  A
O688        C693   1.273       .  A
O689      Fe1387   2.089       .  S
O689        C692   1.272       .  A
O690        C702   1.261       .  A
O691        C704   1.278       .  A
C692       O1401   1.265       .  A
O695        C698   1.270       .  A
O696        C698   1.271       .  A
O697       C1396   1.265   1_455  A
O699      Fe1387   2.074       .  S
O699       C1408   1.278       .  A
O700        C702   1.276       .  A
C701        O703   1.280       .  A
C704       O1403   1.278   1_455  A
C704       C1386   1.478       .  S
Fe705       O721   2.074       .  S
Fe705       O711   2.089       .  S
Fe705       O718   2.066       .  S
Fe705       O710   2.055       .  S
Fe705       O716   1.922       .  S
Fe706       O709   1.999       .  S
Fe706       O713   2.101       .  S
Fe706       O717   2.072       .  S
Fe706       O722   2.120       .  S
Fe706       O716   1.964       .  S
Fe707       O725   2.087       .  S
Fe707       O712   2.028       .  S
Fe707       O719   2.072       .  S
Fe707       O708   2.099       .  S
Fe707       O716   1.935       .  S
O708        C715   1.279       .  A
O709        C723   1.258       .  A
O710        C715   1.273       .  A
O711        C714   1.272       .  A
O712        C724   1.261       .  A
O713        C726   1.278       .  A
C714        O719   1.265       .  A
C714        C767   1.478       .  S
C715        C913   1.464       .  S
O717        C720   1.270       .  A
O718        C720   1.271       .  A
C720        C814   1.471       .  S
O721        C726   1.278       .  A
O722        C724   1.276       .  A
C723        O725   1.280       .  A
C723        C790   1.440       .  S
C724        C759   1.478       .  S
C726        C748   1.478       .  S
Fe727       O743   2.074       .  S
Fe727       O733   2.089       .  S
Fe727       O740   2.066       .  S
Fe727       O732   2.055       .  S
Fe727       O738   1.922       .  S
Fe728       O731   1.999       .  S
Fe728       O735   2.101       .  S
Fe728       O739   2.072       .  S
Fe728       O744   2.120       .  S
Fe728       O738   1.964       .  S
Fe729       O747   2.087       .  S
Fe729       O734   2.028       .  S
Fe729       O741   2.072       .  S
Fe729       O730   2.099       .  S
Fe729       O738   1.935       .  S
O730        C737   1.279       .  A
O731        C745   1.258       .  A
O732        C737   1.273       .  A
O733        C736   1.272       .  A
O734        C746   1.261       .  A
O735        C748   1.278       .  A
C736        O741   1.265       .  A
C736        C789   1.478       .  S
C737        C891   1.464   1_554  S
O739        C742   1.270       .  A
O740        C742   1.271       .  A
C742        C836   1.471       .  S
O743        C748   1.278       .  A
O744        C746   1.276       .  A
C745        O747   1.280       .  A
C745        C768   1.440       .  S
C746        C781   1.478       .  S
Fe749       O755   2.055       .  S
Fe749       O762   2.074       .  S
Fe749       O754   2.089       .  S
Fe750       O753   2.120       .  S
Fe750       O757   2.072       .  S
Fe750       O761   2.101       .  S
Fe750       O766   1.999       .  S
Fe750       O760   1.964       .  S
Fe751       O769   2.028       .  S
Fe751       O756   2.087       .  S
Fe751       O763   2.099       .  S
Fe751       O760   1.935       .  S
O752        C759   1.265       .  A
O753        C767   1.276       .  A
O754        C759   1.272       .  A
O756        C768   1.280       .  A
O757        C770   1.270       .  A
C758        O763   1.279   1_455  A
O761        C764   1.278   1_655  A
O765        C770   1.271       .  A
O766        C768   1.258       .  A
C767        O769   1.261       .  A
C770       C1204   1.471       .  S
Fe771       O787   2.066       .  S
Fe771       O784   2.074       .  S
Fe771       O782   1.922       .  S
Fe772       O775   2.120       .  S
Fe772       O779   2.072       .  S
Fe772       O783   2.101       .  S
Fe772       O788   1.999       .  S
Fe772       O782   1.964       .  S
Fe773       O791   2.028       .  S
Fe773       O778   2.087       .  S
Fe773       O785   2.099       .  S
Fe773       O782   1.935       .  S
O774        C781   1.265   1_455  A
O775        C789   1.276       .  A
O776        C781   1.272       .  A
O778        C790   1.280       .  A
O779        C792   1.270       .  A
C780        O785   1.279       .  A
O783        C786   1.278       .  A
O784        C786   1.278       .  A
O787        C792   1.271       .  A
O788        C790   1.258       .  A
C789        O791   1.261       .  A
C792       C1226   1.471       .  S
Fe793       O809   2.066       .  S
Fe793       O799   2.055       .  S
Fe793       O806   2.074       .  S
Fe793       O798   2.089       .  S
Fe793       O804   1.922       .  S
Fe794       O797   2.120       .  S
Fe794       O801   2.072       .  S
Fe794       O805   2.101       .  S
Fe794       O810   1.999       .  S
Fe794       O804   1.964       .  S
Fe795       O813   2.028       .  S
Fe795       O800   2.087       .  S
Fe795       O807   2.099       .  S
Fe795       O796   2.072       .  S
Fe795       O804   1.935       .  S
O796        C803   1.265       .  A
O797        C811   1.276       .  A
O798        C803   1.272       .  A
O799        C802   1.273       .  A
O800        C812   1.280       .  A
O801        C814   1.270       .  A
C802        O807   1.279       .  A
C802       C1000   1.464       .  S
C803        C856   1.478       .  S
O805        C808   1.278       .  A
O806        C808   1.278       .  A
C808        C830   1.478       .  S
O809        C814   1.271       .  A
O810        C812   1.258       .  A
C811        O813   1.261       .  A
C811        C846   1.478       .  S
C812        C877   1.440       .  S
Fe815       O831   2.066       .  S
Fe815       O821   2.055       .  S
Fe815       O828   2.074       .  S
Fe815       O820   2.089       .  S
Fe815       O826   1.922       .  S
Fe816       O819   2.120       .  S
Fe816       O823   2.072       .  S
Fe816       O827   2.101       .  S
Fe816       O832   1.999       .  S
Fe816       O826   1.964       .  S
Fe817       O835   2.028       .  S
Fe817       O822   2.087       .  S
Fe817       O829   2.099       .  S
Fe817       O818   2.072       .  S
Fe817       O826   1.935       .  S
O818        C825   1.265       .  A
O819        C833   1.276       .  A
O820        C825   1.272       .  A
O821        C824   1.273       .  A
O822        C834   1.280       .  A
O823        C836   1.270       .  A
C824        O829   1.279       .  A
C824        C978   1.464   1_554  S
C825        C878   1.478       .  S
O827        C830   1.278       .  A
O828        C830   1.278       .  A
O831        C836   1.271       .  A
O832        C834   1.258       .  A
C833        O835   1.261       .  A
C833        C868   1.478       .  S
C834        C855   1.440       .  S
Fe837       O853   2.074       .  S
Fe837       O843   2.089       .  S
Fe837       O842   2.055       .  S
Fe838       O841   1.999       .  S
Fe838       O845   2.101       .  S
Fe838       O849   2.072       .  S
Fe838       O854   2.120       .  S
Fe838       O848   1.964       .  S
Fe839       O857   2.087       .  S
Fe839       O844   2.028       .  S
Fe839       O840   2.099       .  S
Fe839       O848   1.935       .  S
O841        C855   1.258       .  A
O842        C847   1.273       .  A
O843        C846   1.272       .  A
O844        C856   1.261       .  A
O845        C858   1.278   1_655  A
C846        O851   1.265       .  A
C847       C1045   1.464       .  S
O849        C852   1.270       .  A
O850        C852   1.271       .  A
C852       C1122   1.471   1_545  S
O854        C856   1.276       .  A
C855        O857   1.280       .  A
Fe859       O872   2.066       .  S
Fe859       O864   2.055       .  S
Fe859       O870   1.922       .  S
Fe860       O863   1.999       .  S
Fe860       O867   2.101       .  S
Fe860       O871   2.072       .  S
Fe860       O876   2.120       .  S
Fe860       O870   1.964       .  S
Fe861       O879   2.087       .  S
Fe861       O866   2.028       .  S
Fe861       O873   2.072       .  S
Fe861       O862   2.099       .  S
Fe861       O870   1.935       .  S
O862        C869   1.279       .  A
O863        C877   1.258       .  A
O864        C869   1.273       .  A
O865        C868   1.272       .  A
O866        C878   1.261       .  A
O867        C880   1.278       .  A
C869       C1023   1.464   1_554  S
O871        C874   1.270       .  A
O872        C874   1.271       .  A
C874       C1144   1.471   1_545  S
O876        C878   1.276       .  A
C877        O879   1.280       .  A
Fe881       O897   2.074       .  S
Fe881       O887   2.089       .  S
Fe881       O894   2.066       .  S
Fe881       O886   2.055       .  S
Fe881       O892   1.922       .  S
Fe882       O885   1.999       .  S
Fe882       O889   2.101       .  S
Fe882       O893   2.072       .  S
Fe882       O898   2.120       .  S
Fe882       O892   1.964       .  S
Fe883       O901   2.087       .  S
Fe883       O888   2.028       .  S
Fe883       O895   2.072       .  S
Fe883       O884   2.099       .  S
Fe883       O892   1.935       .  S
O884        C891   1.279       .  A
O885        C899   1.258       .  A
O886        C891   1.273       .  A
O887        C890   1.272       .  A
O888        C900   1.261       .  A
O889        C902   1.278       .  A
C890        O895   1.265       .  A
C890        C943   1.478       .  S
O893        C896   1.270       .  A
O894        C896   1.271       .  A
C896        C990   1.471       .  S
O897        C902   1.278       .  A
O898        C900   1.276       .  A
C899        O901   1.280       .  A
C899        C966   1.440       .  S
C900        C935   1.478       .  S
C902        C924   1.478       .  S
Fe903       O919   2.074       .  S
Fe903       O909   2.089       .  S
Fe903       O916   2.066       .  S
Fe903       O908   2.055       .  S
Fe903       O914   1.922       .  S
Fe904       O907   1.999       .  S
Fe904       O911   2.101       .  S
Fe904       O915   2.072       .  S
Fe904       O920   2.120       .  S
Fe904       O914   1.964       .  S
Fe905       O923   2.087       .  S
Fe905       O910   2.028       .  S
Fe905       O917   2.072       .  S
Fe905       O906   2.099       .  S
Fe905       O914   1.935       .  S
O906        C913   1.279       .  A
O907        C921   1.258       .  A
O908        C913   1.273       .  A
O909        C912   1.272       .  A
O910        C922   1.261       .  A
O911        C924   1.278       .  A
C912        O917   1.265       .  A
C912        C965   1.478       .  S
O915        C918   1.270       .  A
O916        C918   1.271       .  A
C918       C1012   1.471       .  S
O919        C924   1.278       .  A
O920        C922   1.276       .  A
C921        O923   1.280       .  A
C921        C944   1.440       .  S
C922        C957   1.478       .  S
Fe925       O931   2.055       .  S
Fe925       O938   2.074       .  S
Fe925       O930   2.089       .  S
Fe926       O929   2.120       .  S
Fe926       O933   2.072       .  S
Fe926       O937   2.101       .  S
Fe926       O942   1.999       .  S
Fe926       O936   1.964       .  S
Fe927       O945   2.028       .  S
Fe927       O932   2.087       .  S
Fe927       O939   2.099       .  S
Fe927       O936   1.935       .  S
O928        C935   1.265       .  A
O929        C943   1.276       .  A
O930        C935   1.272       .  A
O932        C944   1.280       .  A
O933        C946   1.270       .  A
C934        O939   1.279   1_455  A
O937        C940   1.278   1_655  A
O941        C946   1.271       .  A
O942        C944   1.258       .  A
C943        O945   1.261       .  A
C946       C1380   1.471       .  S
Fe947       O963   2.066       .  S
Fe947       O960   2.074       .  S
Fe947       O958   1.922       .  S
Fe948       O951   2.120       .  S
Fe948       O955   2.072       .  S
Fe948       O959   2.101       .  S
Fe948       O964   1.999       .  S
Fe948       O958   1.964       .  S
Fe949       O967   2.028       .  S
Fe949       O954   2.087       .  S
Fe949       O961   2.099       .  S
Fe949       O958   1.935       .  S
O950        C957   1.265   1_455  A
O951        C965   1.276       .  A
O952        C957   1.272       .  A
O954        C966   1.280       .  A
O955        C968   1.270       .  A
C956        O961   1.279       .  A
O959        C962   1.278       .  A
O960        C962   1.278       .  A
O963        C968   1.271       .  A
O964        C966   1.258       .  A
C965        O967   1.261       .  A
C968       C1402   1.471       .  S
Fe969       O985   2.066       .  S
Fe969       O975   2.055       .  S
Fe969       O982   2.074       .  S
Fe969       O974   2.089       .  S
Fe969       O980   1.922       .  S
Fe970       O973   2.120       .  S
Fe970       O977   2.072       .  S
Fe970       O981   2.101       .  S
Fe970       O986   1.999       .  S
Fe970       O980   1.964       .  S
Fe971       O989   2.028       .  S
Fe971       O976   2.087       .  S
Fe971       O983   2.099       .  S
Fe971       O972   2.072       .  S
Fe971       O980   1.935       .  S
O972        C979   1.265       .  A
O973        C987   1.276       .  A
O974        C979   1.272       .  A
O975        C978   1.273       .  A
O976        C988   1.280       .  A
O977        C990   1.270       .  A
C978        O983   1.279       .  A
C979       C1032   1.478       .  S
O981        C984   1.278       .  A
O982        C984   1.278       .  A
C984       C1006   1.478       .  S
O985        C990   1.271       .  A
O986        C988   1.258       .  A
C987        O989   1.261       .  A
C987       C1022   1.478       .  S
C988       C1053   1.440       .  S
Fe991      O1007   2.066       .  S
Fe991       O997   2.055       .  S
Fe991      O1004   2.074       .  S
Fe991       O996   2.089       .  S
Fe991      O1002   1.922       .  S
Fe992       O995   2.120       .  S
Fe992       O999   2.072       .  S
Fe992      O1003   2.101       .  S
Fe992      O1008   1.999       .  S
Fe992      O1002   1.964       .  S
Fe993      O1011   2.028       .  S
Fe993       O998   2.087       .  S
Fe993      O1005   2.099       .  S
Fe993       O994   2.072       .  S
Fe993      O1002   1.935       .  S
O994       C1001   1.265       .  A
O995       C1009   1.276       .  A
O996       C1001   1.272       .  A
O997       C1000   1.273       .  A
O998       C1010   1.280       .  A
O999       C1012   1.270       .  A
C1000      O1005   1.279       .  A
C1001      C1054   1.478       .  S
O1003      C1006   1.278       .  A
O1004      C1006   1.278       .  A
O1007      C1012   1.271       .  A
O1008      C1010   1.258       .  A
C1009      O1011   1.261       .  A
C1009      C1044   1.478       .  S
C1010      C1031   1.440       .  S
Fe1013     O1029   2.074       .  S
Fe1013     O1019   2.089       .  S
Fe1013     O1018   2.055       .  S
Fe1014     O1017   1.999       .  S
Fe1014     O1021   2.101       .  S
Fe1014     O1025   2.072       .  S
Fe1014     O1030   2.120       .  S
Fe1014     O1024   1.964       .  S
Fe1015     O1033   2.087       .  S
Fe1015     O1020   2.028       .  S
Fe1015     O1016   2.099       .  S
Fe1015     O1024   1.935       .  S
O1017      C1031   1.258       .  A
O1018      C1023   1.273       .  A
O1019      C1022   1.272       .  A
O1020      C1032   1.261       .  A
O1021      C1034   1.278   1_655  A
C1022      O1027   1.265       .  A
O1025      C1028   1.270       .  A
O1026      C1028   1.271       .  A
C1028      C1298   1.471   1_545  S
O1030      C1032   1.276       .  A
C1031      O1033   1.280       .  A
Fe1035     O1048   2.066       .  S
Fe1035     O1040   2.055       .  S
Fe1035     O1046   1.922       .  S
Fe1036     O1039   1.999       .  S
Fe1036     O1043   2.101       .  S
Fe1036     O1047   2.072       .  S
Fe1036     O1052   2.120       .  S
Fe1036     O1046   1.964       .  S
Fe1037     O1055   2.087       .  S
Fe1037     O1042   2.028       .  S
Fe1037     O1049   2.072       .  S
Fe1037     O1038   2.099       .  S
Fe1037     O1046   1.935       .  S
O1038      C1045   1.279       .  A
O1039      C1053   1.258       .  A
O1040      C1045   1.273       .  A
O1041      C1044   1.272       .  A
O1042      C1054   1.261       .  A
O1043      C1056   1.278       .  A
O1047      C1050   1.270       .  A
O1048      C1050   1.271       .  A
C1050      C1320   1.471   1_545  S
O1052      C1054   1.276       .  A
C1053      O1055   1.280       .  A
Fe1057     O1073   2.074       .  S
Fe1057     O1063   2.089       .  S
Fe1057     O1070   2.066       .  S
Fe1057     O1062   2.055       .  S
Fe1057     O1068   1.922       .  S
Fe1058     O1061   1.999       .  S
Fe1058     O1065   2.101       .  S
Fe1058     O1069   2.072       .  S
Fe1058     O1074   2.120       .  S
Fe1058     O1068   1.964       .  S
Fe1059     O1077   2.087       .  S
Fe1059     O1064   2.028       .  S
Fe1059     O1071   2.072       .  S
Fe1059     O1060   2.099       .  S
Fe1059     O1068   1.935       .  S
O1060      C1067   1.279       .  A
O1061      C1075   1.258       .  A
O1062      C1067   1.273       .  A
O1063      C1066   1.272       .  A
O1064      C1076   1.261       .  A
O1065      C1078   1.278       .  A
C1066      O1071   1.265       .  A
C1066      C1119   1.478       .  S
C1067      C1265   1.464       .  S
O1069      C1072   1.270       .  A
O1070      C1072   1.271       .  A
C1072      C1166   1.471       .  S
O1073      C1078   1.278       .  A
O1074      C1076   1.276       .  A
C1075      O1077   1.280       .  A
C1075      C1142   1.440       .  S
C1076      C1111   1.478       .  S
C1078      C1100   1.478       .  S
Fe1079     O1095   2.074       .  S
Fe1079     O1085   2.089       .  S
Fe1079     O1092   2.066       .  S
Fe1079     O1084   2.055       .  S
Fe1079     O1090   1.922       .  S
Fe1080     O1083   1.999       .  S
Fe1080     O1087   2.101       .  S
Fe1080     O1091   2.072       .  S
Fe1080     O1096   2.120       .  S
Fe1080     O1090   1.964       .  S
Fe1081     O1099   2.087       .  S
Fe1081     O1086   2.028       .  S
Fe1081     O1093   2.072       .  S
Fe1081     O1082   2.099       .  S
Fe1081     O1090   1.935       .  S
O1082      C1089   1.279       .  A
O1083      C1097   1.258       .  A
O1084      C1089   1.273       .  A
O1085      C1088   1.272       .  A
O1086      C1098   1.261       .  A
O1087      C1100   1.278       .  A
C1088      O1093   1.265       .  A
C1088      C1141   1.478       .  S
C1089      C1243   1.464   1_554  S
O1091      C1094   1.270       .  A
O1092      C1094   1.271       .  A
C1094      C1188   1.471       .  S
O1095      C1100   1.278       .  A
O1096      C1098   1.276       .  A
C1097      O1099   1.280       .  A
C1097      C1120   1.440       .  S
C1098      C1133   1.478       .  S
Fe1101     O1107   2.055       .  S
Fe1101     O1114   2.074       .  S
Fe1101     O1106   2.089       .  S
Fe1102     O1105   2.120       .  S
Fe1102     O1109   2.072       .  S
Fe1102     O1113   2.101       .  S
Fe1102     O1118   1.999       .  S
Fe1102     O1112   1.964       .  S
Fe1103     O1121   2.028       .  S
Fe1103     O1108   2.087       .  S
Fe1103     O1115   2.099       .  S
Fe1103     O1112   1.935       .  S
O1104      C1111   1.265       .  A
O1105      C1119   1.276       .  A
O1106      C1111   1.272       .  A
O1108      C1120   1.280       .  A
O1109      C1122   1.270       .  A
C1110      O1115   1.279   1_455  A
O1113      C1116   1.278   1_655  A
O1117      C1122   1.271       .  A
O1118      C1120   1.258       .  A
C1119      O1121   1.261       .  A
Fe1123     O1139   2.066       .  S
Fe1123     O1136   2.074       .  S
Fe1123     O1134   1.922       .  S
Fe1124     O1127   2.120       .  S
Fe1124     O1131   2.072       .  S
Fe1124     O1135   2.101       .  S
Fe1124     O1140   1.999       .  S
Fe1124     O1134   1.964       .  S
Fe1125     O1143   2.028       .  S
Fe1125     O1130   2.087       .  S
Fe1125     O1137   2.099       .  S
Fe1125     O1134   1.935       .  S
O1126      C1133   1.265   1_455  A
O1127      C1141   1.276       .  A
O1128      C1133   1.272       .  A
O1130      C1142   1.280       .  A
O1131      C1144   1.270       .  A
C1132      O1137   1.279       .  A
O1135      C1138   1.278       .  A
O1136      C1138   1.278       .  A
O1139      C1144   1.271       .  A
O1140      C1142   1.258       .  A
C1141      O1143   1.261       .  A
Fe1145     O1161   2.066       .  S
Fe1145     O1151   2.055       .  S
Fe1145     O1158   2.074       .  S
Fe1145     O1150   2.089       .  S
Fe1145     O1156   1.922       .  S
Fe1146     O1149   2.120       .  S
Fe1146     O1153   2.072       .  S
Fe1146     O1157   2.101       .  S
Fe1146     O1162   1.999       .  S
Fe1146     O1156   1.964       .  S
Fe1147     O1165   2.028       .  S
Fe1147     O1152   2.087       .  S
Fe1147     O1159   2.099       .  S
Fe1147     O1148   2.072       .  S
Fe1147     O1156   1.935       .  S
O1148      C1155   1.265       .  A
O1149      C1163   1.276       .  A
O1150      C1155   1.272       .  A
O1151      C1154   1.273       .  A
O1152      C1164   1.280       .  A
O1153      C1166   1.270       .  A
C1154      O1159   1.279       .  A
C1154      C1352   1.464       .  S
C1155      C1208   1.478       .  S
O1157      C1160   1.278       .  A
O1158      C1160   1.278       .  A
C1160      C1182   1.478       .  S
O1161      C1166   1.271       .  A
O1162      C1164   1.258       .  A
C1163      O1165   1.261       .  A
C1163      C1198   1.478       .  S
C1164      C1229   1.440       .  S
Fe1167     O1183   2.066       .  S
Fe1167     O1173   2.055       .  S
Fe1167     O1180   2.074       .  S
Fe1167     O1172   2.089       .  S
Fe1167     O1178   1.922       .  S
Fe1168     O1171   2.120       .  S
Fe1168     O1175   2.072       .  S
Fe1168     O1179   2.101       .  S
Fe1168     O1184   1.999       .  S
Fe1168     O1178   1.964       .  S
Fe1169     O1187   2.028       .  S
Fe1169     O1174   2.087       .  S
Fe1169     O1181   2.099       .  S
Fe1169     O1170   2.072       .  S
Fe1169     O1178   1.935       .  S
O1170      C1177   1.265       .  A
O1171      C1185   1.276       .  A
O1172      C1177   1.272       .  A
O1173      C1176   1.273       .  A
O1174      C1186   1.280       .  A
O1175      C1188   1.270       .  A
C1176      O1181   1.279       .  A
C1176      C1330   1.464   1_554  S
C1177      C1230   1.478       .  S
O1179      C1182   1.278       .  A
O1180      C1182   1.278       .  A
O1183      C1188   1.271       .  A
O1184      C1186   1.258       .  A
C1185      O1187   1.261       .  A
C1185      C1220   1.478       .  S
C1186      C1207   1.440       .  S
Fe1189     O1205   2.074       .  S
Fe1189     O1195   2.089       .  S
Fe1189     O1194   2.055       .  S
Fe1190     O1193   1.999       .  S
Fe1190     O1197   2.101       .  S
Fe1190     O1201   2.072       .  S
Fe1190     O1206   2.120       .  S
Fe1190     O1200   1.964       .  S
Fe1191     O1209   2.087       .  S
Fe1191     O1196   2.028       .  S
Fe1191     O1192   2.099       .  S
Fe1191     O1200   1.935       .  S
O1193      C1207   1.258       .  A
O1194      C1199   1.273       .  A
O1195      C1198   1.272       .  A
O1196      C1208   1.261       .  A
O1197      C1210   1.278   1_655  A
C1198      O1203   1.265       .  A
C1199      C1397   1.464       .  S
O1201      C1204   1.270       .  A
O1202      C1204   1.271       .  A
O1206      C1208   1.276       .  A
C1207      O1209   1.280       .  A
Fe1211     O1224   2.066       .  S
Fe1211     O1216   2.055       .  S
Fe1211     O1222   1.922       .  S
Fe1212     O1215   1.999       .  S
Fe1212     O1219   2.101       .  S
Fe1212     O1223   2.072       .  S
Fe1212     O1228   2.120       .  S
Fe1212     O1222   1.964       .  S
Fe1213     O1231   2.087       .  S
Fe1213     O1218   2.028       .  S
Fe1213     O1225   2.072       .  S
Fe1213     O1214   2.099       .  S
Fe1213     O1222   1.935       .  S
O1214      C1221   1.279       .  A
O1215      C1229   1.258       .  A
O1216      C1221   1.273       .  A
O1217      C1220   1.272       .  A
O1218      C1230   1.261       .  A
O1219      C1232   1.278       .  A
C1221      C1375   1.464   1_554  S
O1223      C1226   1.270       .  A
O1224      C1226   1.271       .  A
O1228      C1230   1.276       .  A
C1229      O1231   1.280       .  A
Fe1233     O1249   2.074       .  S
Fe1233     O1239   2.089       .  S
Fe1233     O1246   2.066       .  S
Fe1233     O1238   2.055       .  S
Fe1233     O1244   1.922       .  S
Fe1234     O1237   1.999       .  S
Fe1234     O1241   2.101       .  S
Fe1234     O1245   2.072       .  S
Fe1234     O1250   2.120       .  S
Fe1234     O1244   1.964       .  S
Fe1235     O1253   2.087       .  S
Fe1235     O1240   2.028       .  S
Fe1235     O1247   2.072       .  S
Fe1235     O1236   2.099       .  S
Fe1235     O1244   1.935       .  S
O1236      C1243   1.279       .  A
O1237      C1251   1.258       .  A
O1238      C1243   1.273       .  A
O1239      C1242   1.272       .  A
O1240      C1252   1.261       .  A
O1241      C1254   1.278       .  A
C1242      O1247   1.265       .  A
C1242      C1295   1.478       .  S
O1245      C1248   1.270       .  A
O1246      C1248   1.271       .  A
C1248      C1342   1.471       .  S
O1249      C1254   1.278       .  A
O1250      C1252   1.276       .  A
C1251      O1253   1.280       .  A
C1251      C1318   1.440       .  S
C1252      C1287   1.478       .  S
C1254      C1276   1.478       .  S
Fe1255     O1271   2.074       .  S
Fe1255     O1261   2.089       .  S
Fe1255     O1268   2.066       .  S
Fe1255     O1260   2.055       .  S
Fe1255     O1266   1.922       .  S
Fe1256     O1259   1.999       .  S
Fe1256     O1263   2.101       .  S
Fe1256     O1267   2.072       .  S
Fe1256     O1272   2.120       .  S
Fe1256     O1266   1.964       .  S
Fe1257     O1275   2.087       .  S
Fe1257     O1262   2.028       .  S
Fe1257     O1269   2.072       .  S
Fe1257     O1258   2.099       .  S
Fe1257     O1266   1.935       .  S
O1258      C1265   1.279       .  A
O1259      C1273   1.258       .  A
O1260      C1265   1.273       .  A
O1261      C1264   1.272       .  A
O1262      C1274   1.261       .  A
O1263      C1276   1.278       .  A
C1264      O1269   1.265       .  A
C1264      C1317   1.478       .  S
O1267      C1270   1.270       .  A
O1268      C1270   1.271       .  A
C1270      C1364   1.471       .  S
O1271      C1276   1.278       .  A
O1272      C1274   1.276       .  A
C1273      O1275   1.280       .  A
C1273      C1296   1.440       .  S
C1274      C1309   1.478       .  S
Fe1277     O1283   2.055       .  S
Fe1277     O1290   2.074       .  S
Fe1277     O1282   2.089       .  S
Fe1278     O1281   2.120       .  S
Fe1278     O1285   2.072       .  S
Fe1278     O1289   2.101       .  S
Fe1278     O1294   1.999       .  S
Fe1278     O1288   1.964       .  S
Fe1279     O1297   2.028       .  S
Fe1279     O1284   2.087       .  S
Fe1279     O1291   2.099       .  S
Fe1279     O1288   1.935       .  S
O1280      C1287   1.265       .  A
O1281      C1295   1.276       .  A
O1282      C1287   1.272       .  A
O1284      C1296   1.280       .  A
O1285      C1298   1.270       .  A
C1286      O1291   1.279   1_455  A
O1289      C1292   1.278   1_655  A
O1293      C1298   1.271       .  A
O1294      C1296   1.258       .  A
C1295      O1297   1.261       .  A
Fe1299     O1315   2.066       .  S
Fe1299     O1312   2.074       .  S
Fe1299     O1310   1.922       .  S
Fe1300     O1303   2.120       .  S
Fe1300     O1307   2.072       .  S
Fe1300     O1311   2.101       .  S
Fe1300     O1316   1.999       .  S
Fe1300     O1310   1.964       .  S
Fe1301     O1319   2.028       .  S
Fe1301     O1306   2.087       .  S
Fe1301     O1313   2.099       .  S
Fe1301     O1310   1.935       .  S
O1302      C1309   1.265   1_455  A
O1303      C1317   1.276       .  A
O1304      C1309   1.272       .  A
O1306      C1318   1.280       .  A
O1307      C1320   1.270       .  A
C1308      O1313   1.279       .  A
O1311      C1314   1.278       .  A
O1312      C1314   1.278       .  A
O1315      C1320   1.271       .  A
O1316      C1318   1.258       .  A
C1317      O1319   1.261       .  A
Fe1321     O1337   2.066       .  S
Fe1321     O1327   2.055       .  S
Fe1321     O1334   2.074       .  S
Fe1321     O1326   2.089       .  S
Fe1321     O1332   1.922       .  S
Fe1322     O1325   2.120       .  S
Fe1322     O1329   2.072       .  S
Fe1322     O1333   2.101       .  S
Fe1322     O1338   1.999       .  S
Fe1322     O1332   1.964       .  S
Fe1323     O1341   2.028       .  S
Fe1323     O1328   2.087       .  S
Fe1323     O1335   2.099       .  S
Fe1323     O1324   2.072       .  S
Fe1323     O1332   1.935       .  S
O1324      C1331   1.265       .  A
O1325      C1339   1.276       .  A
O1326      C1331   1.272       .  A
O1327      C1330   1.273       .  A
O1328      C1340   1.280       .  A
O1329      C1342   1.270       .  A
C1330      O1335   1.279       .  A
C1331      C1384   1.478       .  S
O1333      C1336   1.278       .  A
O1334      C1336   1.278       .  A
C1336      C1358   1.478       .  S
O1337      C1342   1.271       .  A
O1338      C1340   1.258       .  A
C1339      O1341   1.261       .  A
C1339      C1374   1.478       .  S
C1340      C1405   1.440       .  S
Fe1343     O1359   2.066       .  S
Fe1343     O1349   2.055       .  S
Fe1343     O1356   2.074       .  S
Fe1343     O1348   2.089       .  S
Fe1343     O1354   1.922       .  S
Fe1344     O1347   2.120       .  S
Fe1344     O1351   2.072       .  S
Fe1344     O1355   2.101       .  S
Fe1344     O1360   1.999       .  S
Fe1344     O1354   1.964       .  S
Fe1345     O1363   2.028       .  S
Fe1345     O1350   2.087       .  S
Fe1345     O1357   2.099       .  S
Fe1345     O1346   2.072       .  S
Fe1345     O1354   1.935       .  S
O1346      C1353   1.265       .  A
O1347      C1361   1.276       .  A
O1348      C1353   1.272       .  A
O1349      C1352   1.273       .  A
O1350      C1362   1.280       .  A
O1351      C1364   1.270       .  A
C1352      O1357   1.279       .  A
C1353      C1406   1.478       .  S
O1355      C1358   1.278       .  A
O1356      C1358   1.278       .  A
O1359      C1364   1.271       .  A
O1360      C1362   1.258       .  A
C1361      O1363   1.261       .  A
C1361      C1396   1.478       .  S
C1362      C1383   1.440       .  S
Fe1365     O1381   2.074       .  S
Fe1365     O1371   2.089       .  S
Fe1365     O1370   2.055       .  S
Fe1366     O1369   1.999       .  S
Fe1366     O1373   2.101       .  S
Fe1366     O1377   2.072       .  S
Fe1366     O1382   2.120       .  S
Fe1366     O1376   1.964       .  S
Fe1367     O1385   2.087       .  S
Fe1367     O1372   2.028       .  S
Fe1367     O1368   2.099       .  S
Fe1367     O1376   1.935       .  S
O1369      C1383   1.258       .  A
O1370      C1375   1.273       .  A
O1371      C1374   1.272       .  A
O1372      C1384   1.261       .  A
O1373      C1386   1.278   1_655  A
C1374      O1379   1.265       .  A
O1377      C1380   1.270       .  A
O1378      C1380   1.271       .  A
O1382      C1384   1.276       .  A
C1383      O1385   1.280       .  A
Fe1387     O1400   2.066       .  S
Fe1387     O1392   2.055       .  S
Fe1387     O1398   1.922       .  S
Fe1388     O1391   1.999       .  S
Fe1388     O1395   2.101       .  S
Fe1388     O1399   2.072       .  S
Fe1388     O1404   2.120       .  S
Fe1388     O1398   1.964       .  S
Fe1389     O1407   2.087       .  S
Fe1389     O1394   2.028       .  S
Fe1389     O1401   2.072       .  S
Fe1389     O1390   2.099       .  S
Fe1389     O1398   1.935       .  S
O1390      C1397   1.279       .  A
O1391      C1405   1.258       .  A
O1392      C1397   1.273       .  A
O1393      C1396   1.272       .  A
O1394      C1406   1.261       .  A
O1395      C1408   1.278       .  A
O1399      C1402   1.270       .  A
O1400      C1402   1.271       .  A
O1404      C1406   1.276       .  A
C1405      O1407   1.280       .  A
