geometry optimzed in LAMMPS
_audit_creation_date              2020-12-01 
_audit_creation_method            'lammps2cif' 
_symmetry_space_group_name_H-M    'P1' 
_symmetry_Int_Tables_number       1 
_symmetry_cell_setting            triclinic 
loop_ 
_symmetry_equiv_pos_as_xyz 
  x,y,z 
_cell_length_a                    25.67478836 
_cell_length_b                    28.274516551081945 
_cell_length_c                    46.227359385863494 
_cell_angle_alpha                 89.9467872777103 
_cell_angle_beta                  89.91384948510225 
_cell_angle_gamma                 90.31111849340765 
loop_ 
_atom_site_label 
_atom_site_type_symbol 
_atom_site_fract_x 
_atom_site_fract_y 
_atom_site_fract_z 
_atom_site_charge 
Fe1        Fe  0.08395640  0.16735478  0.89506784     1.65800
Fe2        Fe  0.19138952  0.22709860  0.87787086     1.73200
Fe3        Fe  0.13155835  0.24724919  0.94108624     1.54400
O4          O  0.05911197  0.27131242  0.93153732    -0.81400
O5          O  0.24551016  0.24090875  0.91121295    -0.79700
O6          O  0.02436758  0.20261082  0.91787468    -0.83900
O7          O  0.10522103  0.13039182  0.93045276    -0.78800
O8          O  0.16340526  0.31059038  0.92327875    -0.80600
O9          O  0.21303480  0.15799357  0.88071312    -0.83300
C10         C  0.09663447  0.14398764  0.95592723     0.97500
C11         C  0.02032011  0.24393244  0.92881476     1.04900
O12         O  0.13507842  0.21501075  0.90440342    -1.12300
O13         O  0.14256871  0.21608162  0.84111531    -0.74700
O14         O  0.06295532  0.20325382  0.85898699    -0.78200
O15         O  0.09875799  0.18771728  0.96300660    -0.78900
C16         C  0.09288999  0.21364098  0.83814514     0.96400
O17         O  0.13641930  0.12462145  0.87207224    -0.76900
O18         O  0.17342297  0.29687047  0.87598481    -0.82000
C19         C  0.24524333  0.23329092  0.93845963     0.99000
C20         C  0.17427213  0.32451989  0.89752672     1.04900
O21         O  0.20397984  0.22382390  0.95232407    -0.77700
C22         C  0.18528711  0.12177798  0.87625444     1.03200
Fe23       Fe  0.93160518  0.88004110  0.10366515     1.65800
Fe24       Fe  0.82868881  0.81300646  0.12054445     1.73200
Fe25       Fe  0.89816335  0.79155863  0.06000816     1.54400
O26         O  0.92188055  0.85330277  0.03676894    -0.81400
O27         O  0.85010715  0.74413610  0.12463147    -0.79700
O28         O  0.90696463  0.91263941  0.06731382    -0.83900
O29         O  0.99633323  0.85192412  0.08113286    -0.78800
O30         O  0.82414271  0.80244357  0.04595263    -0.80600
O31         O  0.87530799  0.82788965  0.15758217    -0.83300
C32         C  0.00743559  0.81057464  0.07207333     0.97500
C33         C  0.91759815  0.89758454  0.04231328     1.04900
O34         O  0.88626548  0.82707626  0.09494949    -1.12300
O35         O  0.80195324  0.88039334  0.11589446    -0.74700
O36         O  0.87494970  0.91813034  0.12611614    -0.78200
O37         O  0.97360190  0.77789386  0.07189806    -0.78900
C38         C  0.82660509  0.91823537  0.12052731     0.96400
O39         O  0.95439523  0.84719414  0.14054755    -0.76900
O40         O  0.77746176  0.79552935  0.08661552    -0.82000
C41         C  0.85781262  0.71481829  0.10439506     0.99000
C42         C  0.78133137  0.79626753  0.05906402     1.04900
O43         O  0.87406970  0.72720762  0.07928567    -0.77700
C44         C  0.92468947  0.83337320  0.16087562     1.03200
Fe45       Fe  0.43783733  0.66961765  0.89623768     1.65800
Fe46       Fe  0.33010461  0.72939657  0.88011399     1.73200
Fe47       Fe  0.39149771  0.74951988  0.94269340     1.54400
O48         O  0.42253022  0.68962318  0.96449105    -0.81400
O49         O  0.34867872  0.79916799  0.87766085    -0.79700
O50         O  0.41758938  0.63217334  0.93171938    -0.83900
O51         O  0.49843318  0.70443430  0.91908385    -0.78800
O52         O  0.31870608  0.72737597  0.95479385    -0.80600
O53         O  0.37816361  0.71819741  0.84286704    -0.83300
C54         C  0.50259611  0.74520200  0.93083596     0.97500
C55         C  0.42432690  0.64590229  0.95737325     1.04900
O56         O  0.38693656  0.71706254  0.90615095    -1.12300
O57         O  0.30814487  0.66014297  0.88312763    -0.74700
O58         O  0.38408383  0.62644058  0.87372600    -0.78200
O59         O  0.46434995  0.77295289  0.93271914    -0.78900
C60         C  0.33504715  0.62379163  0.87802258     0.96400
O61         O  0.45822004  0.70622078  0.86002371    -0.76900
O62         O  0.27650595  0.74447498  0.91413513    -0.82000
C63         C  0.34941738  0.82680968  0.89919012     0.99000
C64         C  0.27744181  0.73840778  0.94160636     1.04900
O65         O  0.36097132  0.81277031  0.92478037    -0.77700
C66         C  0.42786184  0.71674668  0.83949129     1.03200
Fe67       Fe  0.58650458  0.37591313  0.09921418     1.65800
Fe68       Fe  0.69209324  0.31311918  0.11413942     1.73200
Fe69       Fe  0.62019972  0.28834798  0.05495370     1.54400
O70         O  0.54748845  0.27131241  0.06960614    -0.81400
O71         O  0.74174199  0.29959103  0.07873191    -0.79700
O72         O  0.52245998  0.34463117  0.07782367    -0.83900
O73         O  0.60789472  0.40913754  0.06239071    -0.78800
O74         O  0.64796988  0.22500311  0.07309998    -0.80600
O75         O  0.71642989  0.38179337  0.11112407    -0.83300
C76         C  0.59620995  0.39352146  0.03761818     0.97500
C77         C  0.51274010  0.30257456  0.06942807     1.04900
O78         O  0.63349149  0.32519823  0.08943933    -1.12300
O79         O  0.64626162  0.32417691  0.15198269    -0.74700
O80         O  0.56631600  0.34156140  0.13598406    -0.78200
O81         O  0.59232727  0.34907200  0.03228061    -0.78900
C82         C  0.59679830  0.32759317  0.15571390     0.96400
O83         O  0.64224605  0.41743055  0.12112091    -0.76900
O84         O  0.67347655  0.24357434  0.11779531    -0.82000
C85         C  0.73604286  0.29902390  0.05122833     0.99000
C86         C  0.66577522  0.21370564  0.09791213     1.04900
O87         O  0.69223437  0.30182295  0.03885905    -0.77700
C88         C  0.69134258  0.41851656  0.11748387     1.03200
Fe89       Fe  0.93865121  0.15963323  0.60038376     1.65800
Fe90       Fe  0.83166517  0.21996801  0.61581878     1.73200
Fe91       Fe  0.88522848  0.22936907  0.55030988     1.54400
O92         O  0.95830138  0.25615988  0.55499533    -0.81400
O93         O  0.77582712  0.23214006  0.58307258    -0.79700
O94         O  0.99648125  0.19317190  0.57471390    -0.83900
O95         O  0.91818726  0.11580508  0.56771946    -0.78800
O96         O  0.85434803  0.29481744  0.56536804    -0.80600
O97         O  0.80905680  0.15023606  0.61636062    -0.83300
C98         C  0.92237997  0.12531867  0.54120125     0.97500
C99         C  0.99826368  0.23135556  0.55980628     1.04900
O100        O  0.88613281  0.20397849  0.58894075    -1.12300
O101        O  0.88065384  0.21198270  0.65250074    -0.74700
O102        O  0.95989574  0.20168472  0.63416376    -0.78200
O103        O  0.91660433  0.16727566  0.53138629    -0.78900
C104        C  0.93028312  0.21156404  0.65517894     0.96400
O105        O  0.88659519  0.11962598  0.62604377    -0.76900
O106        O  0.85336733  0.28940264  0.61365174    -0.82000
C107        C  0.77333228  0.21923057  0.55666906     0.99000
C108        C  0.84877932  0.31333011  0.59057102     1.04900
O109        O  0.81229419  0.20254113  0.54360005    -0.77700
C110        C  0.83764827  0.11501592  0.62204631     1.03200
Fe111      Fe  0.09123566  0.86004779  0.39578718     1.65800
Fe112      Fe  0.19767627  0.79945335  0.37929420     1.73200
Fe113      Fe  0.13043036  0.77409056  0.44008430     1.54400
O114        O  0.10379267  0.83543173  0.46307526    -0.81400
O115        O  0.18064365  0.72954360  0.37571919    -0.79700
O116        O  0.11495878  0.89435808  0.43152046    -0.83900
O117        O  0.02935292  0.82901244  0.41909372    -0.78800
O118        O  0.20434068  0.78810964  0.45424278    -0.80600
O119        O  0.14906515  0.81074383  0.34240244    -0.83300
C120        C  0.02089414  0.78727065  0.42833447     0.97500
C121        C  0.10524967  0.87976082  0.45676968     1.04900
O122        O  0.13997968  0.81020250  0.40498377    -1.12300
O123        O  0.21978781  0.86840795  0.38289173    -0.74700
O124        O  0.14474191  0.90189763  0.37261014    -0.78200
O125        O  0.05609756  0.75634747  0.42795510    -0.78900
C126        C  0.19337736  0.90468954  0.37741791     0.96400
O127        O  0.06902434  0.82474645  0.35959702    -0.76900
O128        O  0.25090347  0.78609801  0.41336762    -0.82000
C129        C  0.17296611  0.69938407  0.39553828     0.99000
C130        C  0.24755139  0.78565236  0.44102333     1.04900
O131        O  0.15667152  0.71059955  0.42080612    -0.77700
C132        C  0.09935320  0.81326570  0.33914986     1.03200
Fe133      Fe  0.59130191  0.65901055  0.60297120     1.65800
Fe134      Fe  0.70422007  0.71005637  0.62179484     1.73200
Fe135      Fe  0.65224760  0.72985187  0.55567106     1.54400
O136        O  0.61858772  0.67109320  0.53402288    -0.81400
O137        O  0.69356117  0.78146659  0.62131079    -0.79700
O138        O  0.60782711  0.61722760  0.56865683    -0.83900
O139        O  0.53710194  0.69790392  0.57828923    -0.78800
O140        O  0.72405285  0.70075548  0.54850098    -0.80600
O141        O  0.65272261  0.70494441  0.65765764    -0.83300
C142        C  0.53807776  0.73596788  0.56333448     0.97500
C143        C  0.60791148  0.62902837  0.54236914     1.04900
O144        O  0.64856554  0.70083280  0.59364363    -1.12300
O145        O  0.71903597  0.63875087  0.62187773    -0.74700
O146        O  0.63774133  0.61265392  0.62696906    -0.78200
O147        O  0.57975371  0.75934528  0.55928561    -0.78900
C148        C  0.68654286  0.60533520  0.62515875     0.96400
O149        O  0.57334365  0.69847289  0.63856483    -0.76900
O150        O  0.76257380  0.71834095  0.59016787    -0.82000
C151        C  0.69592672  0.80764909  0.59901039     0.99000
C152        C  0.76446519  0.70929271  0.56318958     1.04900
O153        O  0.68557668  0.79240769  0.57346098    -0.77700
C154        C  0.60303254  0.70635561  0.65992342     1.03200
Fe155      Fe  0.43851451  0.36596938  0.39345831     1.65800
Fe156      Fe  0.33616337  0.29763517  0.37769465     1.73200
Fe157      Fe  0.40700236  0.27699628  0.43779579     1.54400
O158        O  0.48136667  0.26369783  0.42408639    -0.81400
O159        O  0.28544032  0.28335498  0.41246343    -0.79700
O160        O  0.50331625  0.33808632  0.41525759    -0.83900
O161        O  0.41497266  0.39852071  0.43014669    -0.78800
O162        O  0.38247558  0.21185084  0.41997592    -0.80600
O163        O  0.30935512  0.36536417  0.38022047    -0.83300
C164        C  0.42756438  0.38342535  0.45487892     0.97500
C165        C  0.51482505  0.29660708  0.42370816     1.04900
O166        O  0.39356352  0.31273419  0.40288935    -1.12300
O167        O  0.38294455  0.30991198  0.34029564    -0.74700
O168        O  0.46117483  0.33289187  0.35671286    -0.78200
O169        O  0.43176697  0.33907179  0.46037688    -0.78900
C170        C  0.43202580  0.31710097  0.33677711     0.96400
O171        O  0.38198898  0.40466912  0.37110051    -0.76900
O172        O  0.35665248  0.22825070  0.37501749    -0.82000
C173        C  0.28989141  0.28369634  0.44001692     0.99000
C174        C  0.36458477  0.19922676  0.39537758     1.04900
O175        O  0.33330884  0.28738371  0.45288884    -0.77700
C176        C  0.33308873  0.40352126  0.37498854     1.03200
C177        C  0.55902506  0.52236388  0.51415790     0.20600
C178        C  0.54717488  0.47391264  0.51618432    -0.39300
C179        C  0.50261581  0.45890213  0.50124520     0.19600
C180        C  0.47210863  0.49007178  0.48572535     0.22200
C181        C  0.48382091  0.53861293  0.48385659    -0.39800
C182        C  0.52869385  0.55352823  0.49857392     0.21000
N183        N  0.59665891  0.54570578  0.52828676    -0.33100
C184        C  0.59013446  0.59226871  0.52222747    -0.10600
C185        C  0.54862001  0.59844979  0.50314105    -0.29400
N186        N  0.43590901  0.46645560  0.47059017    -0.46000
C187        C  0.44413063  0.41976844  0.47572033    -0.05300
C188        C  0.48454166  0.41373861  0.49551430    -0.22700
H189        H  0.57136932  0.44958487  0.52818770     0.19100
H190        H  0.46008871  0.56285226  0.47150874     0.17900
H191        H  0.53101881  0.63154237  0.49672810     0.14200
H192        H  0.50303759  0.38087111  0.50155125     0.14100
H193        H  0.62183137  0.53113153  0.54357891     0.32200
H194        H  0.41117559  0.48101092  0.45505222     0.35000
C195        C  0.92545092  0.77741126  0.48302141     0.20600
C196        C  0.90471317  0.78851071  0.51024649    -0.39300
C197        C  0.87365625  0.75339194  0.52308785     0.19600
C198        C  0.86302286  0.71083117  0.50951148     0.22200
C199        C  0.88519181  0.69907509  0.48263196    -0.39800
C200        C  0.91730591  0.73390575  0.47008176     0.21000
N201        N  0.95821110  0.80401894  0.46719119    -0.33100
C202        C  0.97302443  0.77679228  0.44457233    -0.10600
C203        C  0.94801842  0.73278239  0.44551235    -0.29400
N204        N  0.82622259  0.68666198  0.52416176    -0.46000
C205        C  0.81384380  0.71379835  0.54736302    -0.05300
C206        C  0.84350641  0.75520428  0.54772271    -0.22700
H207        H  0.91169534  0.82234661  0.52051143     0.19100
H208        H  0.87755453  0.66554632  0.47213808     0.17900
H209        H  0.95463675  0.70278348  0.43147852     0.14200
H210        H  0.83851762  0.78534207  0.56186928     0.14100
H211        H  0.97362041  0.83693163  0.47295392     0.32200
H212        H  0.80743376  0.65569434  0.51746195     0.35000
C213        C  0.34071929  0.76157163  0.49679841     0.20600
C214        C  0.35758255  0.74402700  0.52366902    -0.39300
C215        C  0.41050708  0.75093935  0.53009891     0.19600
C216        C  0.44389963  0.77416315  0.51129915     0.22200
C217        C  0.42722314  0.79086025  0.48408683    -0.39800
C218        C  0.37428147  0.78342483  0.47747769     0.21000
N219        N  0.29225284  0.75976400  0.48597081    -0.33100
C220        C  0.29448381  0.78000988  0.45934881    -0.10600
C221        C  0.34531895  0.79492551  0.45309910    -0.29400
N222        N  0.49258906  0.77488577  0.52207377    -0.46000
C223        C  0.49066003  0.75107720  0.54763369    -0.05300
C224        C  0.43990049  0.73563580  0.55335441    -0.22700
H225        H  0.33143524  0.72584788  0.53837882     0.19100
H226        H  0.45366179  0.80796313  0.46906462     0.17900
H227        H  0.35892483  0.81270327  0.43375069     0.14200
H228        H  0.42679794  0.71406850  0.57132612     0.14100
H229        H  0.25939363  0.74535313  0.49611089     0.32200
H230        H  0.52584230  0.78804345  0.51172208     0.35000
C231        C  0.27901416  0.00253617  0.38936682     0.20600
C232        C  0.32204593  0.02633058  0.40151558    -0.39300
C233        C  0.32639144  0.07464646  0.39478454     0.19600
C234        C  0.29091705  0.09675136  0.37686421     0.22200
C235        C  0.24725702  0.07330502  0.36540015    -0.39800
C236        C  0.24247615  0.02534959  0.37247288     0.21000
N237        N  0.26615944  0.95680879  0.39252009    -0.33100
C238        C  0.22081180  0.95048104  0.37792859    -0.10600
C239        C  0.20441458  0.99261275  0.36528221    -0.29400
N240        N  0.30290866  0.14257577  0.37384759    -0.46000
C241        C  0.34548687  0.15063938  0.39047011    -0.05300
C242        C  0.36147450  0.10897973  0.40406769    -0.22700
H243        H  0.34969694  0.00861549  0.41540089     0.19100
H244        H  0.21884850  0.09128895  0.35213324     0.17900
H245        H  0.16968833  0.99844344  0.35255088     0.14200
H246        H  0.39320954  0.10468011  0.41921005     0.14100
H247        H  0.28650989  0.93151675  0.40442596     0.32200
H248        H  0.28147734  0.16764565  0.36236643     0.35000
C249        C  0.27775117  0.51854332  0.36683976     0.20600
C250        C  0.27274572  0.56482109  0.35635609    -0.39300
C251        C  0.23544501  0.59281038  0.37037219     0.19600
C252        C  0.20598066  0.57654553  0.39348142     0.22200
C253        C  0.21031309  0.52993474  0.40361601    -0.39800
C254        C  0.24689892  0.50160541  0.38921371     0.21000
N255        N  0.31242230  0.48573594  0.35837287    -0.33100
C256        C  0.30269490  0.44738701  0.37514678    -0.10600
C257        C  0.26200642  0.45583579  0.39446171    -0.29400
N258        N  0.17735494  0.61175546  0.40494737    -0.46000
C259        C  0.18842669  0.65050039  0.38873024    -0.05300
C260        C  0.22394882  0.63976104  0.36680917    -0.22700
H261        H  0.29711285  0.57849386  0.33910910     0.19100
H262        H  0.18791392  0.51702664  0.42186600     0.17900
H263        H  0.24716001  0.43226560  0.41103812     0.14200
H264        H  0.24198658  0.66403142  0.35163089     0.14100
H265        H  0.34115284  0.48933061  0.34248545     0.32200
H266        H  0.15368221  0.61002832  0.42331283     0.35000
C267        C  0.76854304  0.00879787  0.60501624     0.20600
C268        C  0.73692650  0.97949549  0.58782678    -0.39300
C269        C  0.73248232  0.93230966  0.59684608     0.19600
C270        C  0.75723368  0.91574723  0.62137721     0.22200
C271        C  0.79006443  0.94481281  0.63821949    -0.39800
C272        C  0.79503584  0.99204277  0.62894319     0.21000
N273        N  0.77906954  0.05479085  0.60071061    -0.33100
C274        C  0.81341248  0.06760602  0.62155210    -0.10600
C275        C  0.82469936  0.02931686  0.63960048    -0.29400
N276        N  0.74598285  0.86973461  0.62551346    -0.46000
C277        C  0.71453400  0.85668673  0.60323664    -0.05300
C278        C  0.70550103  0.89476895  0.58477892    -0.22700
H279        H  0.71732142  0.99252003  0.56872828     0.19100
H280        H  0.81037421  0.93157329  0.65703800     0.17900
H281        H  0.85119687  0.02873816  0.65777993     0.14200
H282        H  0.68242513  0.89495051  0.56521105     0.14100
H283        H  0.76526011  0.07589857  0.58385156     0.32200
H284        H  0.75993582  0.84814013  0.64210786     0.35000
C285        C  0.80270338  0.42433439  0.61629703     0.20600
C286        C  0.79201959  0.45922232  0.63716508    -0.39300
C287        C  0.75571662  0.49380061  0.62902066     0.19600
C288        C  0.73101971  0.49264231  0.60243184     0.22200
C289        C  0.74200120  0.45801749  0.58155422    -0.39800
C290        C  0.77922666  0.42425381  0.58938732     0.21000
N291        N  0.83403274  0.38668638  0.61910264    -0.33100
C292        C  0.83086999  0.36253432  0.59376691    -0.10600
C293        C  0.79744579  0.38528987  0.57453348    -0.29400
N294        N  0.70013705  0.53036092  0.59928168    -0.46000
C295        C  0.70557202  0.55646361  0.62360580    -0.05300
C296        C  0.74017598  0.53492598  0.64278123    -0.22700
H297        H  0.81112645  0.45976307  0.65801886     0.19100
H298        H  0.72329888  0.45775332  0.56058308     0.17900
H299        H  0.78475335  0.37286524  0.55354155     0.14200
H300        H  0.75430031  0.54877401  0.66314753     0.14100
H301        H  0.85418339  0.37661637  0.63771942     0.32200
H302        H  0.67970256  0.53996644  0.58061658     0.35000
C303        C  0.99886377  0.04785048  0.49949775     0.20600
C304        C  0.04366707  0.03587905  0.48387697    -0.39300
C305        C  0.05898898  0.98843003  0.48576123     0.19600
C306        C  0.03170775  0.95503912  0.50168419     0.22200
C307        C  0.98714332  0.96715300  0.51760786    -0.39800
C308        C  0.97202889  0.01478704  0.51591629     0.21000
N309        N  0.97899132  0.09137139  0.50319875    -0.33100
C310        C  0.94003834  0.08630462  0.52276293    -0.10600
C311        C  0.93406459  0.03882202  0.53075076    -0.29400
N312        N  0.05053401  0.91130882  0.49687228    -0.46000
C313        C  0.08939597  0.91688002  0.47724225    -0.05300
C314        C  0.09667810  0.96480022  0.47066923    -0.22700
H315        H  0.06485987  0.06155538  0.47099039     0.19100
H316        H  0.96565099  0.94137759  0.53026067     0.17900
H317        H  0.90927921  0.02467978  0.54768632     0.14200
H318        H  0.12131327  0.97965974  0.45388720     0.14100
H319        H  0.99489159  0.12312477  0.49558164     0.32200
H320        H  0.03398023  0.87944199  0.50381428     0.35000
C321        C  0.67781785  0.22589800  0.50154319     0.20600
C322        C  0.65246685  0.21206385  0.47602881    -0.39300
C323        C  0.62260630  0.24702746  0.46248473     0.19600
C324        C  0.61921500  0.29261556  0.47317611     0.22200
C325        C  0.64395221  0.30624149  0.49897011    -0.39800
C326        C  0.67292668  0.27094508  0.51286934     0.21000
N327        N  0.71085206  0.20007817  0.51748433    -0.33100
C328        C  0.72663481  0.22856221  0.53938479    -0.10600
C329        C  0.70337143  0.27295022  0.53741520    -0.29400
N330        N  0.58516784  0.31804540  0.45763708    -0.46000
C331        C  0.56522148  0.28799551  0.43761023    -0.05300
C332        C  0.58825720  0.24354979  0.43971149    -0.22700
H333        H  0.65511533  0.17645254  0.46760225     0.19100
H334        H  0.64028259  0.34153142  0.50777784     0.17900
H335        H  0.71164010  0.30384857  0.55047134     0.14200
H336        H  0.57730383  0.21170073  0.42820077     0.14100
H337        H  0.72433433  0.16614242  0.51277943     0.32200
H338        H  0.57183363  0.35195985  0.46252729     0.35000
C339        C  0.19739556  0.25900940  0.49568115     0.20600
C340        C  0.17988535  0.24012373  0.52209356    -0.39300
C341        C  0.12700383  0.24683404  0.52831902     0.19600
C342        C  0.09455752  0.27144074  0.50984189     0.22200
C343        C  0.11187149  0.28964805  0.48318562    -0.39800
C344        C  0.16452109  0.28207007  0.47668722     0.21000
N345        N  0.24571480  0.25687609  0.48478301    -0.33100
C346        C  0.24364550  0.27800317  0.45847633    -0.10600
C347        C  0.19350025  0.29396711  0.45247166    -0.29400
N348        N  0.04570400  0.27146589  0.52008574    -0.46000
C349        C  0.04649607  0.24573036  0.54487947    -0.05300
C350        C  0.09667522  0.22979255  0.55082479    -0.22700
H351        H  0.20536270  0.22078558  0.53644320     0.19100
H352        H  0.08597951  0.30755146  0.46836895     0.17900
H353        H  0.18036679  0.31246941  0.43334047     0.14200
H354        H  0.10879821  0.20706357  0.56838941     0.14100
H355        H  0.27817952  0.24151736  0.49454146     0.32200
H356        H  0.01305868  0.28557340  0.50980737     0.35000
C357        C  0.55983143  0.30754311  0.22942345     0.20600
C358        C  0.56569842  0.30750982  0.25955989    -0.39300
C359        C  0.51935060  0.30490580  0.27564760     0.19600
C360        C  0.47067103  0.30203426  0.26288034     0.22200
C361        C  0.46478025  0.30211161  0.23271723    -0.39800
C362        C  0.51113893  0.30522741  0.21662437     0.21000
N363        N  0.59746515  0.31364730  0.20938113    -0.33100
C364        C  0.57230428  0.31597498  0.18369429    -0.10600
C365        C  0.51857520  0.31048697  0.18738564    -0.29400
N366        N  0.43265800  0.30355360  0.28301804    -0.46000
C367        C  0.45752293  0.30817859  0.30871286    -0.05300
C368        C  0.51150836  0.30870976  0.30491327    -0.22700
H369        H  0.60341935  0.31120539  0.26975929     0.19100
H370        H  0.42684715  0.30175124  0.22252928     0.17900
H371        H  0.48869091  0.31226623  0.17092603     0.14200
H372        H  0.54108290  0.31367106  0.32131852     0.14100
H373        H  0.63727356  0.31837720  0.21307023     0.32200
H374        H  0.39252160  0.30404740  0.27939333     0.35000
C375        C  0.51579905  0.72177335  0.71976743     0.20600
C376        C  0.46707044  0.72120677  0.73370278    -0.39300
C377        C  0.46798132  0.72617058  0.76389846     0.19600
C378        C  0.51413814  0.73130234  0.77898892     0.22200
C379        C  0.56299830  0.73210392  0.76501926    -0.39800
C380        C  0.56205137  0.72700990  0.73475707     0.21000
N381        N  0.52508005  0.71502603  0.69149586    -0.33100
C382        C  0.57761469  0.71574572  0.68813780    -0.10600
C383        C  0.60219637  0.72331603  0.71474063    -0.29400
N384        N  0.50488658  0.73111691  0.80761481    -0.46000
C385        C  0.45255550  0.72552663  0.81094739    -0.05300
C386        C  0.42808522  0.72293715  0.78404930    -0.22700
H387        H  0.43113324  0.71571406  0.72194071     0.19100
H388        H  0.59913623  0.73486169  0.77694439     0.17900
H389        H  0.64362646  0.72447341  0.71899131     0.14200
H390        H  0.38725278  0.71630206  0.77982874     0.14100
H391        H  0.49715784  0.70896114  0.67549507     0.32200
H392        H  0.53289342  0.73243385  0.82397199     0.35000
C393        C  0.50094617  0.56694073  0.99685233     0.20600
C394        C  0.54887868  0.55181536  0.00786496    -0.39300
C395        C  0.55767792  0.50291148  0.00685463     0.19600
C396        C  0.52166476  0.47125540  0.99572072     0.22200
C397        C  0.47386528  0.48645066  0.98447921    -0.39800
C398        C  0.46501892  0.53538428  0.98556628     0.21000
N399        N  0.48561139  0.61185708  0.99263873    -0.33100
C400        C  0.44027125  0.60899426  0.97775543    -0.10600
C401        C  0.42564196  0.56171950  0.97373290    -0.29400
N402        N  0.53615132  0.42636998  0.00100650    -0.46000
C403        C  0.58092753  0.42953416  0.01641480    -0.05300
C404        C  0.59628888  0.47677809  0.01952114    -0.22700
H405        H  0.57704549  0.57628228  0.01689322     0.19100
H406        H  0.44543971  0.46194772  0.97573878     0.17900
H407        H  0.39437414  0.54849839  0.96022225     0.14200
H408        H  0.62713320  0.49037506  0.03319315     0.14100
H409        H  0.50809647  0.64222492  0.99602026     0.32200
H410        H  0.51323937  0.39612911  0.99806978     0.35000
C411        C  0.01346061  0.80049277  0.27882308     0.20600
C412        C  0.96463690  0.80036559  0.26496359    -0.39300
C413        C  0.96555337  0.80843644  0.23497521     0.19600
C414        C  0.01172921  0.81597625  0.22017102     0.22200
C415        C  0.06044369  0.81544722  0.23392418    -0.39800
C416        C  0.05956493  0.80738824  0.26382635     0.21000
N417        N  0.02264941  0.79883042  0.30739267    -0.33100
C418        C  0.07486357  0.80489983  0.31070224    -0.10600
C419        C  0.09936740  0.80957423  0.28391421    -0.29400
N420        N  0.00237613  0.82556329  0.19228029    -0.46000
C421        C  0.94989847  0.82399884  0.18897404    -0.05300
C422        C  0.92537511  0.81319026  0.21518483    -0.22700
H423        H  0.92853873  0.79608121  0.27682835     0.19100
H424        H  0.09629151  0.82257538  0.22232671     0.17900
H425        H  0.14001651  0.81742942  0.27982886     0.14200
H426        H  0.88398191  0.81025789  0.21931881     0.14100
H427        H  0.99465931  0.79636922  0.32376456     0.32200
H428        H  0.03023809  0.83325664  0.17644196     0.35000
C429        C  0.11856951  0.80851960  0.02557837     0.20600
C430        C  0.14854234  0.82460997  0.00194995    -0.39300
C431        C  0.17828447  0.79015676  0.98754351     0.19600
C432        C  0.17937399  0.74351610  0.99654932     0.22200
C433        C  0.14925905  0.72736218  0.02006750    -0.39800
C434        C  0.11837359  0.76151843  0.03394057     0.21000
N435        N  0.08279521  0.83306851  0.04067736    -0.33100
C436        C  0.05846454  0.80133385  0.05824245    -0.10600
C437        C  0.08005492  0.75639306  0.05476685    -0.29400
N438        N  0.21216491  0.71816116  0.97994451    -0.46000
C439        C  0.23121481  0.74844513  0.95966286    -0.05300
C440        C  0.21105345  0.79377080  0.96382440    -0.22700
H441        H  0.14758148  0.86104357  0.99477189     0.19100
H442        H  0.14869416  0.69056453  0.02653870     0.17900
H443        H  0.06643434  0.72360996  0.06431460     0.14200
H444        H  0.22167251  0.82571292  0.95225867     0.14100
H445        H  0.07203040  0.86820338  0.03715176     0.32200
H446        H  0.22239870  0.68275679  0.98281749     0.35000
C447        C  0.69276338  0.76501360  0.00309149     0.20600
C448        C  0.67770934  0.74428687  0.97677550    -0.39300
C449        C  0.62729926  0.75497837  0.96730996     0.19600
C450        C  0.59503801  0.78487942  0.98269924     0.22200
C451        C  0.60972105  0.80484165  0.00933732    -0.39800
C452        C  0.65979142  0.79342951  0.01908411     0.21000
N453        N  0.73914236  0.76150355  0.01610203    -0.33100
C454        C  0.73576774  0.78732077  0.04071407    -0.10600
C455        C  0.68657369  0.80745007  0.04363071    -0.29400
N456        N  0.54850451  0.78806421  0.96978405    -0.46000
C457        C  0.55024718  0.75892838  0.94648150    -0.05300
C458        C  0.59904164  0.73776937  0.94408406    -0.22700
H459        H  0.70322068  0.72113628  0.96473613     0.19100
H460        H  0.58384558  0.82725077  0.02166327     0.17900
H461        H  0.67327107  0.83105415  0.06048072     0.14200
H462        H  0.61109637  0.71129694  0.92860092     0.14100
H463        H  0.77169203  0.74335918  0.00841642     0.32200
H464        H  0.51606573  0.80611664  0.97768482     0.35000
C465        C  0.77705416  0.03552838  0.12381160     0.20600
C466        C  0.77313926  0.08217516  0.13351617    -0.39300
C467        C  0.73453116  0.10933108  0.12023708     0.19600
C468        C  0.70313431  0.09217216  0.09824611     0.22200
C469        C  0.70673093  0.04520236  0.08866993    -0.39800
C470        C  0.74438663  0.01747734  0.10264174     0.21000
N471        N  0.81069813  0.00259907  0.13304451    -0.33100
C472        C  0.79843253  0.96294801  0.11817316    -0.10600
C473        C  0.75739484  0.97074038  0.09899594    -0.29400
N474        N  0.67212538  0.12654693  0.08786091    -0.46000
C475        C  0.68359620  0.16540981  0.10383129    -0.05300
C476        C  0.72191826  0.15577513  0.12431249    -0.22700
H477        H  0.79839383  0.09635992  0.15014969     0.19100
H478        H  0.68219247  0.03130564  0.07162549     0.17900
H479        H  0.74027149  0.94578558  0.08396725     0.14200
H480        H  0.74049253  0.18040298  0.13901517     0.14100
H481        H  0.83982691  0.00668165  0.14860532     0.32200
H482        H  0.64618490  0.12414665  0.07053967     0.35000
C483        C  0.79250678  0.60886900  0.12577312     0.20600
C484        C  0.75190963  0.58305699  0.13894299    -0.39300
C485        C  0.74560685  0.53625402  0.12944583     0.19600
C486        C  0.77815651  0.51660837  0.10887197     0.22200
C487        C  0.81797685  0.54273897  0.09525993    -0.39800
C488        C  0.82359146  0.58981285  0.10432016     0.21000
N489        N  0.80406085  0.65472797  0.12966081    -0.33100
C490        C  0.84179648  0.66554634  0.11009473    -0.10600
C491        C  0.85513368  0.62584216  0.09384519    -0.29400
N492        N  0.76364792  0.47197099  0.10309092    -0.46000
C493        C  0.72077165  0.46327723  0.11946592    -0.05300
C494        C  0.70816765  0.50258768  0.13627391    -0.22700
H495        H  0.72620206  0.59872963  0.15480050     0.19100
H496        H  0.84182696  0.52786277  0.07826126     0.17900
H497        H  0.88219535  0.62412615  0.07591172     0.14200
H498        H  0.67571048  0.50627286  0.15105080     0.14100
H499        H  0.78482721  0.67811633  0.14346979     0.32200
H500        H  0.78060525  0.44933791  0.08795562     0.35000
C501        C  0.05562598  0.22551438  0.76367668     0.20600
C502        C  0.06220796  0.22551207  0.73352211    -0.39300
C503        C  0.01619062  0.22528641  0.71708608     0.19600
C504        C  0.96717620  0.22502590  0.72960251     0.22200
C505        C  0.96055917  0.22487590  0.75977755    -0.39800
C506        C  0.00662138  0.22515059  0.77621451     0.21000
N507        N  0.09313530  0.22330133  0.78402739    -0.33100
C508        C  0.06778485  0.22118955  0.80974017    -0.10600
C509        C  0.01380906  0.22249936  0.80566606    -0.29400
N510        N  0.92978479  0.22221724  0.70919735    -0.46000
C511        C  0.95527172  0.22035722  0.68349794    -0.05300
C512        C  0.00916321  0.22245161  0.68763057    -0.22700
H513        H  0.10036548  0.22461779  0.72356302     0.19100
H514        H  0.92239783  0.22350952  0.76973853     0.17900
H515        H  0.98375362  0.22007184  0.82206297     0.14200
H516        H  0.03928656  0.22016296  0.67128912     0.14100
H517        H  0.13328356  0.22151517  0.78058635     0.32200
H518        H  0.88964033  0.21970981  0.71260281     0.35000
C519        C  0.98975983  0.97341131  0.99718527     0.20600
C520        C  0.03626542  0.98649712  0.98335867    -0.39300
C521        C  0.04874586  0.03484078  0.98414791     0.19600
C522        C  0.01727964  0.06794886  0.99741650     0.22200
C523        C  0.97061737  0.05491732  0.01115852    -0.39800
C524        C  0.95830230  0.00646305  0.01056568     0.21000
N525        N  0.97322442  0.92917433  0.00299247    -0.33100
C526        C  0.93195237  0.93396309  0.02101422    -0.10600
C527        C  0.92056533  0.98178929  0.02537878    -0.29400
N528        N  0.03550003  0.11207717  0.99277722    -0.46000
C529        C  0.07832761  0.10704023  0.97589003    -0.05300
C530        C  0.08830822  0.05920125  0.97073967    -0.22700
H531        H  0.06129412  0.96081682  0.97305385     0.19100
H532        H  0.94611520  0.08049715  0.02193641     0.17900
H533        H  0.89332316  0.99642652  0.04083613     0.14200
H534        H  0.11679039  0.04457925  0.95598705     0.14100
H535        H  0.99323053  0.89795118  0.99840668     0.32200
H536        H  0.01646202  0.14361685  0.99774658     0.35000
C537        C  0.28563065  0.50524651  0.87145299     0.20600
C538        C  0.28249798  0.45825157  0.86179414    -0.39300
C539        C  0.24378532  0.43011950  0.87493180     0.19600
C540        C  0.21129053  0.44697580  0.89648454     0.22200
C541        C  0.21345085  0.49427965  0.90553913    -0.39800
C542        C  0.25148045  0.52261905  0.89203156     0.21000
N543        N  0.32056799  0.53870569  0.86352006    -0.33100
C544        C  0.30756137  0.57786162  0.87877466    -0.10600
C545        C  0.26463182  0.56914670  0.89658668    -0.29400
N546        N  0.18109778  0.41196673  0.90731011    -0.46000
C547        C  0.19386501  0.37280693  0.89204617    -0.05300
C548        C  0.23236035  0.38292430  0.87154088    -0.22700
H549        H  0.30897178  0.44427813  0.84572852     0.19100
H550        H  0.18820840  0.50780883  0.92234214     0.17900
H551        H  0.24652949  0.59338616  0.91161912     0.14200
H552        H  0.25144148  0.35829001  0.85713809     0.14100
H553        H  0.35112735  0.53517203  0.84875110     0.32200
H554        H  0.15429433  0.41435353  0.92425786     0.35000
C555        C  0.28626306  0.93213731  0.87564813     0.20600
C556        C  0.25166813  0.95872815  0.85865377    -0.39300
C557        C  0.23924968  0.00371838  0.86935801     0.19600
C558        C  0.26055358  0.02090563  0.89478138     0.22200
C559        C  0.29423360  0.99399429  0.91202768    -0.39800
C560        C  0.30604174  0.94883136  0.90154898     0.21000
N561        N  0.30227112  0.88772023  0.87088963    -0.33100
C562        C  0.33156169  0.87557406  0.89416748    -0.10600
C563        C  0.33491816  0.91289798  0.91376633    -0.29400
N564        N  0.24383374  0.06488344  0.89999269    -0.46000
C565        C  0.21095834  0.07567165  0.87809034    -0.05300
C566        C  0.20661498  0.03831959  0.85855607    -0.22700
H567        H  0.23520665  0.94515446  0.83876114     0.19100
H568        H  0.30965653  0.00711130  0.93228553     0.17900
H569        H  0.35394967  0.91302410  0.93463637     0.14200
H570        H  0.18370120  0.03705982  0.83894055     0.14100
H571        H  0.29145568  0.86602993  0.85359006     0.32200
H572        H  0.25372620  0.08626358  0.91760625     0.35000
C573        C  0.34364674  0.27921529  0.98419207     0.20600
C574        C  0.36807284  0.31489403  0.00034960    -0.39300
C575        C  0.40172134  0.29946114  0.02216965     0.19600
C576        C  0.41118772  0.25203491  0.02717985     0.22200
C577        C  0.38605214  0.21615740  0.01128002    -0.39800
C578        C  0.35148542  0.23166871  0.98974146     0.21000
N579        N  0.30833219  0.28502730  0.96315318    -0.33100
C580        C  0.29266365  0.24104766  0.95544199    -0.10600
C581        C  0.31842931  0.20667050  0.97167147    -0.29400
N582        N  0.44886231  0.24695781  0.04710617    -0.46000
C583        C  0.46325324  0.29147328  0.05489068    -0.05300
C584        C  0.43403034  0.32508588  0.04008548    -0.22700
H585        H  0.36159699  0.35204819  0.99609501     0.19100
H586        H  0.39305264  0.17900940  0.01529400     0.17900
H587        H  0.31171634  0.16884443  0.97143013     0.14200
H588        H  0.43964290  0.36306285  0.04008346     0.14100
H589        H  0.29297853  0.31704792  0.95589533     0.32200
H590        H  0.46635968  0.21530665  0.05341027     0.35000
C591        C  0.82516146  0.26813059  0.99553618     0.20600
C592        C  0.84276509  0.24336025  0.97112889    -0.39300
C593        C  0.89274141  0.25556547  0.96134124     0.19600
C594        C  0.92214661  0.29058174  0.97452531     0.22200
C595        C  0.90486230  0.31475126  0.99922470    -0.39800
C596        C  0.85544686  0.30176178  0.00943299     0.21000
N597        N  0.77940487  0.26276817  0.00912916    -0.33100
C598        C  0.78093387  0.29240026  0.03215008    -0.10600
C599        C  0.82783912  0.31725187  0.03325971    -0.29400
N600        N  0.96945778  0.29348973  0.96239337    -0.46000
C601        C  0.97104941  0.25916042  0.94194320    -0.05300
C602        C  0.92363559  0.23496268  0.94041361    -0.22700
H603        H  0.81981866  0.21573698  0.96102577     0.19100
H604        H  0.92877869  0.34081071  0.01014427     0.17900
H605        H  0.83941076  0.34392468  0.04878215     0.14200
H606        H  0.91443370  0.20422881  0.92740974     0.14100
H607        H  0.74887378  0.24021538  0.00317965     0.32200
H608        H  0.00032780  0.31481665  0.96936630     0.35000
loop_ 
_geom_bond_atom_site_label_1 
_geom_bond_atom_site_label_2 
_geom_bond_distance 
_geom_bond_site_symmetry_2 
_ccdc_geom_bond_type 
Fe1          O17   2.102       .  S
Fe1           O7   2.018       .  S
Fe1          O14   2.027       .  S
Fe1           O6   2.112       .  S
Fe1          O12   1.926       .  S
Fe2           O5   2.112       .  S
Fe2           O9   2.038       .  S
Fe2          O13   2.135       .  S
Fe2          O18   2.030       .  S
Fe2          O12   1.924       .  S
Fe3          O21   2.045       .  S
Fe3           O8   2.129       .  S
Fe3          O15   2.133       .  S
Fe3           O4   2.033       .  S
Fe3          O12   1.928       .  S
O4           C11   1.265       .  A
O5           C19   1.278       .  A
O6           C11   1.278       .  A
O7           C10   1.259       .  A
O8           C20   1.283       .  A
O9           C22   1.262       .  A
C10          O15   1.280       .  A
C10         C529   1.468       .  S
C11         C601   1.469   1_455  S
O13          C16   1.285       .  A
O14          C16   1.265       .  A
C16         C508   1.479       .  S
O17          C22   1.273       .  A
O18          C20   1.267       .  A
C19          O21   1.265       .  A
C19         C580   1.465       .  S
C20         C547   1.474       .  S
C22         C565   1.466       .  S
Fe23         O39   2.029       .  S
Fe23         O29   2.119       .  S
Fe23         O36   2.090       .  S
Fe23         O28   2.020       .  S
Fe23         O34   1.935       .  S
Fe24         O27   2.035       .  S
Fe24         O31   2.131       .  S
Fe24         O35   2.040       .  S
Fe24         O40   2.106       .  S
Fe24         O34   1.932       .  S
Fe25         O43   2.114       .  S
Fe25         O30   2.034       .  S
Fe25         O37   2.053       .  S
Fe25         O26   2.134       .  S
Fe25         O34   1.928       .  S
O26          C33   1.284       .  A
O27          C41   1.267       .  A
O28          C33   1.262       .  A
O29          C32   1.276   1_655  A
O30          C42   1.266       .  A
O31          C44   1.286       .  A
C32          O37   1.265   1_455  A
C32         C436   1.482       .  S
C33         C526   1.468       .  S
O35          C38   1.259       .  A
O36          C38   1.268       .  A
C38         C472   1.464       .  S
O39          C44   1.269       .  A
O40          C42   1.277       .  A
C41          O43   1.281       .  A
C41         C490   1.474       .  S
C42         C454   1.467       .  S
C44         C421   1.477       .  S
Fe45         O61   2.034       .  S
Fe45         O51   2.120       .  S
Fe45         O58   2.113       .  S
Fe45         O50   2.017       .  S
Fe45         O56   1.933       .  S
Fe46         O49   2.030       .  S
Fe46         O53   2.142       .  S
Fe46         O57   2.039       .  S
Fe46         O62   2.133       .  S
Fe46         O56   1.926       .  S
Fe47         O65   2.124       .  S
Fe47         O52   2.045       .  S
Fe47         O59   2.033       .  S
Fe47         O48   2.129       .  S
Fe47         O56   1.927       .  S
O48          C55   1.281       .  A
O49          C63   1.266       .  A
O50          C55   1.260       .  A
O51          C54   1.279       .  A
O52          C64   1.264       .  A
O53          C66   1.286       .  A
C54          O59   1.263       .  A
C54         C457   1.473       .  S
C55         C400   1.466       .  S
O57          C60   1.264       .  A
O58          C60   1.276       .  A
C60         C544   1.475       .  S
O61          C66   1.265       .  A
O62          C64   1.282       .  A
C63          O65   1.283       .  A
C63         C562   1.474       .  S
C64         C439   1.479       .  S
C66         C385   1.483       .  S
Fe67         O83   2.107       .  S
Fe67         O73   2.018       .  S
Fe67         O80   2.022       .  S
Fe67         O72   2.111       .  S
Fe67         O78   1.932       .  S
Fe68         O71   2.110       .  S
Fe68         O75   2.041       .  S
Fe68         O79   2.131       .  S
Fe68         O84   2.028       .  S
Fe68         O78   1.922       .  S
Fe69         O87   2.027       .  S
Fe69         O74   2.105       .  S
Fe69         O81   2.138       .  S
Fe69         O70   2.040       .  S
Fe69         O78   1.935       .  S
O70          C77   1.259       .  A
O71          C85   1.280       .  A
O72          C77   1.275       .  A
O73          C76   1.264       .  A
O74          C86   1.276       .  A
O75          C88   1.260       .  A
C76          O81   1.284       .  A
C76         C403   1.468       .  S
C77         C583   1.471       .  S
O79          C82   1.286       .  A
O80          C82   1.267       .  A
C82         C364   1.473       .  S
O83          C88   1.272       .  A
O84          C86   1.264       .  A
C85          O87   1.265       .  A
C85         C598   1.463       .  S
C86         C475   1.468       .  S
C88         C493   1.473       .  S
Fe89        O105   2.109       .  S
Fe89         O95   2.023       .  S
Fe89        O102   2.037       .  S
Fe89         O94   2.119       .  S
Fe89        O100   1.921       .  S
Fe90         O93   2.116       .  S
Fe90         O97   2.052       .  S
Fe90        O101   2.125       .  S
Fe90        O106   2.040       .  S
Fe90        O100   1.925       .  S
Fe91        O109   2.041       .  S
Fe91         O96   2.134       .  S
Fe91        O103   2.124       .  S
Fe91         O92   2.031       .  S
Fe91        O100   1.924       .  S
O92          C99   1.266       .  A
O93         C107   1.276       .  A
O94          C99   1.281       .  A
O95          C98   1.259       .  A
O96         C108   1.286       .  A
O97         C110   1.268       .  A
C98         O103   1.279       .  A
C98         C310   1.468       .  S
C99         C349   1.472   1_655  S
O101        C104   1.281       .  A
O102        C104   1.265       .  A
C104        C511   1.479       .  S
O105        C110   1.276       .  A
O106        C108   1.269       .  A
C107        O109   1.262       .  A
C107        C328   1.467       .  S
C108        C292   1.475       .  S
C110        C274   1.475       .  S
Fe111       O127   2.030       .  S
Fe111       O117   2.106       .  S
Fe111       O124   2.100       .  S
Fe111       O116   2.010       .  S
Fe111       O122   1.937       .  S
Fe112       O115   2.029       .  S
Fe112       O119   2.140       .  S
Fe112       O123   2.035       .  S
Fe112       O128   2.122       .  S
Fe112       O122   1.923       .  S
Fe113       O131   2.118       .  S
Fe113       O118   2.045       .  S
Fe113       O125   2.050       .  S
Fe113       O114   2.149       .  S
Fe113       O122   1.931       .  S
O114        C121   1.287       .  A
O115        C129   1.266       .  A
O116        C121   1.262       .  A
O117        C120   1.272       .  A
O118        C130   1.268       .  A
O119        C132   1.288       .  A
C120        O125   1.261       .  A
C120        C202   1.468   1_455  S
C121        C313   1.472       .  S
O123        C126   1.258       .  A
O124        C126   1.271       .  A
C126        C238   1.471       .  S
O127        C132   1.267       .  A
O128        C130   1.281       .  A
C129        O131   1.281       .  A
C129        C259   1.474       .  S
C130        C220   1.483       .  S
C132        C418   1.477       .  S
Fe133       O149   2.042       .  S
Fe133       O139   2.113       .  S
Fe133       O146   2.095       .  S
Fe133       O138   2.025       .  S
Fe133       O144   1.930       .  S
Fe134       O137   2.039       .  S
Fe134       O141   2.123       .  S
Fe134       O145   2.054       .  S
Fe134       O150   2.104       .  S
Fe134       O144   1.951       .  S
Fe135       O153   2.127       .  S
Fe135       O140   2.050       .  S
Fe135       O147   2.050       .  S
Fe135       O136   2.121       .  S
Fe135       O144   1.939       .  S
O136        C143   1.278       .  A
O137        C151   1.270       .  A
O138        C143   1.260       .  A
O139        C142   1.279       .  A
O140        C152   1.263       .  A
O141        C154   1.281       .  A
C142        O147   1.268       .  A
C142        C223   1.483       .  S
C143        C184   1.467       .  S
O145        C148   1.266       .  A
O146        C148   1.274       .  A
C148        C295   1.470       .  S
O149        C154   1.267       .  A
O150        C152   1.274       .  A
C151        O153   1.285       .  A
C151        C277   1.477       .  S
C152        C205   1.468       .  S
C154        C382   1.482       .  S
Fe155       O171   2.096       .  S
Fe155       O161   2.024       .  S
Fe155       O168   2.026       .  S
Fe155       O160   2.103       .  S
Fe155       O166   1.941       .  S
Fe156       O159   2.105       .  S
Fe156       O163   2.042       .  S
Fe156       O167   2.131       .  S
Fe156       O172   2.038       .  S
Fe156       O166   1.926       .  S
Fe157       O175   2.038       .  S
Fe157       O162   2.112       .  S
Fe157       O169   2.137       .  S
Fe157       O158   2.048       .  S
Fe157       O166   1.936       .  S
O158        C165   1.263       .  A
O159        C173   1.279       .  A
O160        C165   1.272       .  A
O161        C164   1.263       .  A
O162        C174   1.277       .  A
O163        C176   1.259       .  A
C164        O169   1.284       .  A
C164        C187   1.471       .  S
C165        C331   1.467       .  S
O167        C170   1.285       .  A
O168        C170   1.268       .  A
C170        C367   1.475       .  S
O171        C176   1.268       .  A
O172        C174   1.266       .  A
C173        O175   1.268       .  A
C173        C346   1.469       .  S
C174        C241   1.474       .  S
C176        C256   1.469       .  S
C177        C182   1.382       .  A
C177        C178   1.405       .  A
C177        N183   1.338       .  A
C178        C179   1.401       .  A
C178        H189   1.083       .  S
C179        C188   1.382       .  A
C179        C180   1.383       .  A
C180        C181   1.406       .  A
C180        N186   1.340       .  A
C181        C182   1.402       .  A
C181        H190   1.082       .  S
C182        C185   1.383       .  A
N183        C184   1.357       .  A
N183        H193   1.044       .  S
C184        C185   1.396       .  A
C185        H191   1.083       .  S
N186        C187   1.359       .  A
N186        H194   1.045       .  S
C187        C188   1.395       .  A
C188        H192   1.082       .  S
C195        C200   1.383       .  A
C195        C196   1.402       .  A
C195        N201   1.341       .  A
C196        C197   1.401       .  A
C196        H207   1.082       .  S
C197        C206   1.377       .  A
C197        C198   1.384       .  A
C198        C199   1.407       .  A
C198        N204   1.345       .  A
C199        C200   1.405       .  A
C199        H208   1.082       .  S
C200        C203   1.382       .  A
N201        C202   1.354       .  A
N201        H211   1.044       .  S
C202        C203   1.398       .  A
C203        H209   1.082       .  S
N204        C205   1.358       .  A
N204        H212   1.045       .  S
C205        C206   1.393       .  A
C206        H210   1.083       .  S
C213        C218   1.383       .  A
C213        C214   1.407       .  A
C213        N219   1.343       .  A
C214        C215   1.404       .  A
C214        H225   1.082       .  S
C215        C224   1.385       .  A
C215        C216   1.383       .  A
C216        C217   1.411       .  A
C216        N222   1.346       .  A
C217        C218   1.408       .  A
C217        H226   1.082       .  S
C218        C221   1.390       .  A
N219        C220   1.358       .  A
N219        H229   1.045       .  S
C220        C221   1.399       .  A
C221        H227   1.082       .  S
N222        C223   1.360       .  A
N222        H230   1.045       .  S
C223        C224   1.397       .  A
C224        H228   1.082       .  S
C231        C236   1.383       .  A
C231        C232   1.408       .  A
C231        N237   1.340   1_545  A
C232        C233   1.405       .  A
C232        H243   1.082       .  S
C233        C242   1.389       .  A
C233        C234   1.383       .  A
C234        C235   1.404       .  A
C234        N240   1.337       .  A
C235        C236   1.399       .  A
C235        H244   1.082       .  S
C236        C239   1.383   1_545  A
N237        C238   1.358       .  A
N237        H247   1.045       .  S
C238        C239   1.394       .  A
C239        H245   1.082       .  S
N240        C241   1.356       .  A
N240        H248   1.045       .  S
C241        C242   1.398       .  A
C242        H246   1.082       .  S
C249        C254   1.385       .  A
C249        C250   1.402       .  A
C249        N255   1.347       .  A
C250        C251   1.404       .  A
C250        H261   1.083       .  S
C251        C260   1.371       .  A
C251        C252   1.385       .  A
C252        C253   1.403       .  A
C252        N258   1.349       .  A
C253        C254   1.405       .  A
C253        H262   1.082       .  S
C254        C257   1.374       .  A
N255        C256   1.354       .  A
N255        H265   1.045       .  S
C256        C257   1.395       .  A
C257        H263   1.083       .  S
N258        C259   1.355       .  A
N258        H266   1.044       .  S
C259        C260   1.397       .  A
C260        H264   1.083       .  S
C267        C272   1.384   1_545  A
C267        C268   1.405   1_545  A
C267        N273   1.341       .  A
C268        C269   1.401       .  A
C268        H279   1.082       .  S
C269        C278   1.383       .  A
C269        C270   1.383       .  A
C270        C271   1.410       .  A
C270        N276   1.345       .  A
C271        C272   1.407       .  A
C271        H280   1.082       .  S
C272        C275   1.388   1_565  A
N273        C274   1.355       .  A
N273        H283   1.045       .  S
C274        C275   1.398       .  A
C275        H281   1.082       .  S
N276        C277   1.360       .  A
N276        H284   1.045       .  S
C277        C278   1.394       .  A
C278        H282   1.082       .  S
C285        C290   1.383       .  A
C285        C286   1.408       .  A
C285        N291   1.344       .  A
C286        C287   1.406       .  A
C286        H297   1.082       .  S
C287        C296   1.386       .  A
C287        C288   1.384       .  A
C288        C289   1.405       .  A
C288        N294   1.340       .  A
C289        C290   1.402       .  A
C289        H298   1.083       .  S
C290        C293   1.382       .  A
N291        C292   1.359       .  A
N291        H301   1.045       .  S
C292        C293   1.396       .  A
C293        H299   1.082       .  S
N294        C295   1.353       .  A
N294        H302   1.047       .  S
C295        C296   1.398       .  A
C296        H300   1.082       .  S
C303        C308   1.384       .  A
C303        C304   1.401   1_655  A
C303        N309   1.346       .  A
C304        C305   1.403   1_545  A
C304        H315   1.083       .  S
C305        C314   1.369       .  A
C305        C306   1.383       .  A
C306        C307   1.404   1_455  A
C306        N312   1.349       .  A
C307        C308   1.406   1_565  A
C307        H316   1.082       .  S
C308        C311   1.374       .  A
N309        C310   1.354       .  A
N309        H319   1.045       .  S
C310        C311   1.400       .  A
C311        H317   1.083       .  S
N312        C313   1.356       .  A
N312        H320   1.044       .  S
C313        C314   1.400       .  A
C314        H318   1.083       .  S
C321        C326   1.384       .  A
C321        C322   1.403       .  A
C321        N327   1.343       .  A
C322        C323   1.402       .  A
C322        H333   1.082       .  S
C323        C332   1.378       .  A
C323        C324   1.384       .  A
C324        C325   1.405       .  A
C324        N330   1.343       .  A
C325        C326   1.404       .  A
C325        H334   1.083       .  S
C326        C329   1.380       .  A
N327        C328   1.355       .  A
N327        H337   1.045       .  S
C328        C329   1.396       .  A
C329        H335   1.083       .  S
N330        C331   1.356       .  A
N330        H338   1.045       .  S
C331        C332   1.395       .  A
C332        H336   1.082       .  S
C339        C344   1.384       .  A
C339        C340   1.404       .  A
C339        N345   1.340       .  A
C340        C341   1.401       .  A
C340        H351   1.082       .  S
C341        C350   1.383       .  A
C341        C342   1.384       .  A
C342        C343   1.406       .  A
C342        N348   1.340       .  A
C343        C344   1.402       .  A
C343        H352   1.082       .  S
C344        C347   1.383       .  A
N345        C346   1.356       .  A
N345        H355   1.045       .  S
C346        C347   1.395       .  A
C347        H353   1.082       .  S
N348        C349   1.357       .  A
N348        H356   1.045       .  S
C349        C350   1.395       .  A
C350        H354   1.082       .  S
C357        C362   1.385       .  A
C357        C358   1.401       .  A
C357        N363   1.348       .  A
C358        C359   1.404       .  A
C358        H369   1.082       .  S
C359        C368   1.372       .  A
C359        C360   1.385       .  A
C360        C361   1.403       .  A
C360        N366   1.349       .  A
C361        C362   1.405       .  A
C361        H370   1.082       .  S
C362        C365   1.373       .  A
N363        C364   1.354       .  A
N363        H373   1.044       .  S
C364        C365   1.398       .  A
C365        H371   1.083       .  S
N366        C367   1.355       .  A
N366        H374   1.044       .  S
C367        C368   1.397       .  A
C368        H372   1.083       .  S
C375        C380   1.383       .  A
C375        C376   1.406       .  A
C375        N381   1.342       .  A
C376        C377   1.403       .  A
C376        H387   1.082       .  S
C377        C386   1.386       .  A
C377        C378   1.383       .  A
C378        C379   1.410       .  A
C378        N384   1.344       .  A
C379        C380   1.407       .  A
C379        H388   1.082       .  S
C380        C383   1.389       .  A
N381        C382   1.358       .  A
N381        H391   1.044       .  S
C382        C383   1.399       .  A
C383        H389   1.082       .  S
N384        C385   1.361       .  A
N384        H392   1.045       .  S
C385        C386   1.396       .  A
C386        H390   1.082       .  S
C393        C398   1.383       .  A
C393        C394   1.401   1_556  A
C393        N399   1.346       .  A
C394        C395   1.403       .  A
C394        H405   1.082       .  S
C395        C404   1.371       .  A
C395        C396   1.384   1_554  A
C396        C397   1.403       .  A
C396        N402   1.347   1_556  A
C397        C398   1.404       .  A
C397        H406   1.082       .  S
C398        C401   1.373       .  A
N399        C400   1.355       .  A
N399        H409   1.044       .  S
C400        C401   1.399       .  A
C401        H407   1.083       .  S
N402        C403   1.356       .  A
N402        H410   1.044   1_554  S
C403        C404   1.398       .  A
C404        H408   1.083       .  S
C411        C416   1.384       .  A
C411        C412   1.409   1_455  A
C411        N417   1.343       .  A
C412        C413   1.405       .  A
C412        H423   1.082       .  S
C413        C422   1.387       .  A
C413        C414   1.383   1_655  A
C414        C415   1.404       .  A
C414        N420   1.340       .  A
C415        C416   1.401       .  A
C415        H424   1.082       .  S
C416        C419   1.383       .  A
N417        C418   1.359       .  A
N417        H427   1.045   1_455  S
C418        C419   1.394       .  A
C419        H425   1.082       .  S
N420        C421   1.357   1_455  A
N420        H428   1.045       .  S
C421        C422   1.397       .  A
C422        H426   1.082       .  S
C429        C434   1.384       .  A
C429        C430   1.409       .  A
C429        N435   1.349       .  A
C430        C431   1.408   1_554  A
C430        H441   1.082   1_554  S
C431        C440   1.384       .  A
C431        C432   1.383       .  A
C432        C433   1.408   1_556  A
C432        N438   1.348       .  A
C433        C434   1.407       .  A
C433        H442   1.082       .  S
C434        C437   1.382       .  A
N435        C436   1.359       .  A
N435        H445   1.045       .  S
C436        C437   1.398       .  A
C437        H443   1.082       .  S
N438        C439   1.358       .  A
N438        H446   1.045       .  S
C439        C440   1.398       .  A
C440        H444   1.083       .  S
C447        C452   1.384       .  A
C447        C448   1.405   1_554  A
C447        N453   1.339       .  A
C448        C449   1.401       .  A
C448        H459   1.082       .  S
C449        C458   1.384       .  A
C449        C450   1.383       .  A
C450        C451   1.406   1_556  A
C450        N456   1.340       .  A
C451        C452   1.402       .  A
C451        H460   1.082       .  S
C452        C455   1.385       .  A
N453        C454   1.355       .  A
N453        H463   1.045       .  S
C454        C455   1.395       .  A
C455        H461   1.082       .  S
N456        C457   1.358       .  A
N456        H464   1.045       .  S
C457        C458   1.396       .  A
C458        H462   1.082       .  S
C465        C470   1.386       .  A
C465        C466   1.398       .  A
C465        N471   1.343       .  A
C466        C467   1.399       .  A
C466        H477   1.082       .  S
C467        C476   1.367       .  A
C467        C468   1.385       .  A
C468        C469   1.404       .  A
C468        N474   1.348       .  A
C469        C470   1.406       .  A
C469        H478   1.082       .  S
C470        C473   1.375   1_545  A
N471        C472   1.352   1_545  A
N471        H481   1.044       .  S
C472        C473   1.396       .  A
C473        H479   1.083       .  S
N474        C475   1.356       .  A
N474        H482   1.044       .  S
C475        C476   1.394       .  A
C476        H480   1.083       .  S
C483        C488   1.383       .  A
C483        C484   1.407       .  A
C483        N489   1.341       .  A
C484        C485   1.403       .  A
C484        H495   1.082       .  S
C485        C494   1.385       .  A
C485        C486   1.384       .  A
C486        C487   1.406       .  A
C486        N492   1.341       .  A
C487        C488   1.402       .  A
C487        H496   1.082       .  S
C488        C491   1.385       .  A
N489        C490   1.358       .  A
N489        H499   1.045       .  S
C490        C491   1.395       .  A
C491        H497   1.082       .  S
N492        C493   1.356       .  A
N492        H500   1.045       .  S
C493        C494   1.396       .  A
C494        H498   1.082       .  S
C501        C506   1.384       .  A
C501        C502   1.404       .  A
C501        N507   1.349       .  A
C502        C503   1.406       .  A
C502        H513   1.082       .  S
C503        C512   1.376       .  A
C503        C504   1.384   1_455  A
C504        C505   1.405       .  A
C504        N510   1.349       .  A
C505        C506   1.407   1_655  A
C505        H514   1.082       .  S
C506        C509   1.376       .  A
N507        C508   1.355       .  A
N507        H517   1.044       .  S
C508        C509   1.400       .  A
C509        H515   1.083   1_455  S
N510        C511   1.357       .  A
N510        H518   1.044       .  S
C511        C512   1.398   1_655  A
C512        H516   1.083       .  S
C519        C524   1.384   1_566  A
C519        C520   1.401   1_655  A
C519        N525   1.345   1_556  A
C520        C521   1.403   1_565  A
C520        H531   1.083       .  S
C521        C530   1.371       .  A
C521        C522   1.383       .  A
C522        C523   1.403   1_456  A
C522        N528   1.347       .  A
C523        C524   1.405       .  A
C523        H532   1.082       .  S
C524        C527   1.373   1_545  A
N525        C526   1.354       .  A
N525        H535   1.046   1_554  S
C526        C527   1.400       .  A
C527        H533   1.083       .  S
N528        C529   1.356       .  A
N528        H536   1.045       .  S
C529        C530   1.399       .  A
C530        H534   1.083       .  S
C537        C542   1.385       .  A
C537        C538   1.404       .  A
C537        N543   1.350       .  A
C538        C539   1.406       .  A
C538        H549   1.082       .  S
C539        C548   1.374       .  A
C539        C540   1.385       .  A
C540        C541   1.403       .  A
C540        N546   1.349       .  A
C541        C542   1.405       .  A
C541        H550   1.082       .  S
C542        C545   1.373       .  A
N543        C544   1.356       .  A
N543        H553   1.045       .  S
C544        C545   1.396       .  A
C545        H551   1.083       .  S
N546        C547   1.355       .  A
N546        H554   1.044       .  S
C547        C548   1.397       .  A
C548        H552   1.083       .  S
C555        C560   1.384       .  A
C555        C556   1.407       .  A
C555        N561   1.342       .  A
C556        C557   1.403   1_565  A
C556        H567   1.082       .  S
C557        C566   1.385       .  A
C557        C558   1.384       .  A
C558        C559   1.404   1_545  A
C558        N564   1.340       .  A
C559        C560   1.401       .  A
C559        H568   1.082   1_565  S
C560        C563   1.382       .  A
N561        C562   1.359       .  A
N561        H571   1.045       .  S
C562        C563   1.394       .  A
C563        H569   1.082       .  S
N564        C565   1.355       .  A
N564        H572   1.045       .  S
C565        C566   1.394       .  A
C566        H570   1.082       .  S
C573        C578   1.384       .  A
C573        C574   1.402   1_556  A
C573        N579   1.341       .  A
C574        C575   1.400       .  A
C574        H585   1.082   1_554  S
C575        C584   1.377       .  A
C575        C576   1.383       .  A
C576        C577   1.408       .  A
C576        N582   1.345       .  A
C577        C578   1.406   1_554  A
C577        H586   1.082       .  S
C578        C581   1.384       .  A
N579        C580   1.353       .  A
N579        H589   1.045       .  S
C580        C581   1.397       .  A
C581        H587   1.082       .  S
N582        C583   1.359       .  A
N582        H590   1.045       .  S
C583        C584   1.394       .  A
C584        H588   1.083       .  S
C591        C596   1.384   1_556  A
C591        C592   1.404       .  A
C591        N597   1.339   1_556  A
C592        C593   1.401       .  A
C592        H603   1.082       .  S
C593        C602   1.381       .  A
C593        C594   1.384       .  A
C594        C595   1.404       .  A
C594        N600   1.339       .  A
C595        C596   1.400   1_556  A
C595        H604   1.082   1_556  S
C596        C599   1.382       .  A
N597        C598   1.356       .  A
N597        H607   1.045       .  S
C598        C599   1.392       .  A
C599        H605   1.082       .  S
N600        C601   1.356       .  A
N600        H608   1.045   1_655  S
C601        C602   1.395       .  A
C602        H606   1.082       .  S
