geometry optimzed in LAMMPS
_audit_creation_date              2020-12-01 
_audit_creation_method            'lammps2cif' 
_symmetry_space_group_name_H-M    'P1' 
_symmetry_Int_Tables_number       1 
_symmetry_cell_setting            triclinic 
loop_ 
_symmetry_equiv_pos_as_xyz 
  x,y,z 
_cell_length_a                    38.14672518 
_cell_length_b                    42.601999493832466 
_cell_length_c                    35.510616471592805 
_cell_angle_alpha                 89.84012021108613 
_cell_angle_beta                  90.15839775764387 
_cell_angle_gamma                 89.90618045142237 
loop_ 
_atom_site_label 
_atom_site_type_symbol 
_atom_site_fract_x 
_atom_site_fract_y 
_atom_site_fract_z 
_atom_site_charge 
O1          O  0.07108509  0.04904524  0.86210920    -0.85300
O2          O  0.05427486  0.05051174  0.93425205    -0.82400
C3          C  0.04244859  0.05714982  0.96580090     0.98100
O4          O  0.04102749  0.08600161  0.97537176    -0.82400
O5          O  0.10830977  0.10750857  0.96496371    -0.85100
C6          C  0.13602484  0.11771066  0.95062456     1.02700
O7          O  0.13706520  0.12425068  0.91557612    -0.77800
O8          O  0.12048013  0.06952853  0.88015228    -0.78000
C9          C  0.10285652  0.04568402  0.87208891     1.02600
O10         O  0.02033104  0.09936464  0.84975974    -0.85300
O11         O  0.49689130  0.09451675  0.92291752    -0.82400
C12         C  0.49322257  0.12216287  0.93593671     0.98200
O13         O  0.01801032  0.14103867  0.93295345    -0.82400
O14         O  0.08535699  0.16465025  0.92825678    -0.85000
C15         C  0.09062678  0.17434918  0.89465978     1.02600
O16         O  0.08753992  0.15589449  0.86730462    -0.77800
O17         O  0.07317685  0.10304963  0.82594110    -0.78000
C18         C  0.03973486  0.10367856  0.82173340     1.02600
Cr19       Cr  0.03718775  0.07530715  0.89261527     1.93700
Cr20       Cr  0.06348806  0.12378516  0.94767505     1.93200
Cr21       Cr  0.10240469  0.11242109  0.87369919     1.39100
O22         O  0.06743094  0.10452531  0.90429303    -1.23100
O23         O  0.38755357  0.44055974  0.11952925    -0.85300
O24         O  0.37165271  0.38583569  0.08273724    -0.82400
C25         C  0.37141269  0.39257170  0.04772434     0.98100
O26         O  0.39822839  0.40400715  0.03272649    -0.82400
O27         O  0.46435917  0.42746808  0.02069313    -0.85100
C28         C  0.46217672  0.45622092  0.03045252     1.02700
O29         O  0.45142585  0.46246991  0.06259512    -0.77800
O30         O  0.43675033  0.46229887  0.13542597    -0.78000
C31         C  0.40447276  0.46497469  0.12704167     1.02600
O32         O  0.43744819  0.40713553  0.17032314    -0.85300
O33         O  0.42392201  0.35496982  0.12843072    -0.82400
C34         C  0.42000135  0.33688811  0.10089653     0.98200
O35         O  0.42411095  0.34714466  0.06737307    -0.82400
O36         O  0.49069481  0.37274569  0.06113838    -0.85000
C37         C  0.01502560  0.39219901  0.05784969     1.02600
O38         O  0.01072742  0.41967855  0.07121369    -0.77800
O39         O  0.48956075  0.41328956  0.14533110    -0.78000
C40         C  0.47095479  0.40672819  0.17339092     1.02600
Cr41       Cr  0.40721145  0.39803333  0.12368014     1.93700
Cr42       Cr  0.44414753  0.38883768  0.04824856     1.93200
Cr43       Cr  0.47055346  0.43742857  0.10326252     1.39100
O44         O  0.44088270  0.40750916  0.09205888    -1.23100
O45         O  0.13759637  0.31951631  0.87373357    -0.85300
O46         O  0.12061153  0.37374304  0.91023603    -0.82400
C47         C  0.12008484  0.36649046  0.94511852     0.98100
O48         O  0.14690632  0.35549076  0.96075635    -0.82400
O49         O  0.21367636  0.33341791  0.97389430    -0.85100
C50         C  0.21271211  0.30455892  0.96460275     1.02700
O51         O  0.20310119  0.29723933  0.93220103    -0.77800
O52         O  0.18725301  0.29772813  0.85884530    -0.78000
C53         C  0.15495639  0.29521986  0.86671885     1.02600
O54         O  0.18726837  0.35277473  0.82314122    -0.85300
O55         O  0.17280716  0.40545954  0.86552941    -0.82400
C56         C  0.16767769  0.42322261  0.89316603     0.98200
O57         O  0.17188456  0.41266494  0.92658010    -0.82400
O58         O  0.23918006  0.38791424  0.93416864    -0.85000
C59         C  0.26383740  0.36845161  0.93681678     1.02600
O60         O  0.26035928  0.34118143  0.92278424    -0.77800
O61         O  0.23927688  0.34702061  0.84865093    -0.78000
C62         C  0.22078304  0.35235684  0.82004551     1.02600
Cr63       Cr  0.15677921  0.36202342  0.86975660     1.93700
Cr64       Cr  0.19273841  0.37132489  0.94592602     1.93200
Cr65       Cr  0.22071862  0.32290953  0.89098153     1.39100
O66         O  0.19034805  0.35258200  0.90196317    -1.23100
O67         O  0.32161084  0.21413371  0.13583192    -0.85300
O68         O  0.30511761  0.21375485  0.06269197    -0.82400
C69         C  0.29463210  0.20634859  0.03066573     0.98100
O70         O  0.29350248  0.17743335  0.02161261    -0.82400
O71         O  0.36064276  0.15656023  0.03345672    -0.85100
C72         C  0.38810278  0.14640406  0.04852639     1.02700
O73         O  0.38863109  0.13930412  0.08344423    -0.77800
O74         O  0.37124691  0.19261681  0.12049363    -0.78000
C75         C  0.35382129  0.21676171  0.12768600     1.02600
O76         O  0.27069317  0.16413838  0.14670018    -0.85300
O77         O  0.24839237  0.16919650  0.07338208    -0.82400
C78         C  0.24498635  0.14169264  0.05995655     0.98200
O79         O  0.26995231  0.12254839  0.06233096    -0.82400
O80         O  0.33777751  0.09875313  0.06812790    -0.85000
C81         C  0.34303259  0.08832795  0.10140665     1.02600
O82         O  0.33895354  0.10596206  0.12940538    -0.77800
O83         O  0.32281231  0.15854092  0.17198857    -0.78000
C84         C  0.28927826  0.15914534  0.17524273     1.02600
Cr85       Cr  0.28825766  0.18822012  0.10428699     1.93700
Cr86       Cr  0.31571755  0.13984842  0.04932549     1.93200
Cr87       Cr  0.35307396  0.14992423  0.12479682     1.39100
O88         O  0.31873851  0.15871367  0.09317745    -1.23100
O89         O  0.43862817  0.04454223  0.63572958    -0.85300
O90         O  0.45841734  0.04543893  0.56381555    -0.82400
C91         C  0.46994014  0.05278144  0.53216901     0.98100
O92         O  0.47202718  0.08179353  0.52341090    -0.82400
O93         O  0.40517837  0.10432512  0.53020730    -0.85100
C94         C  0.37672768  0.11337555  0.54398801     1.02700
O95         O  0.37439681  0.11956611  0.57903566    -0.77800
O96         O  0.38987010  0.06543457  0.61611465    -0.78000
C97         C  0.40708085  0.04144808  0.62496259     1.02600
O98         O  0.48900732  0.09460898  0.64940789    -0.85300
O99         O  0.01497933  0.08912516  0.57731497    -0.82400
C100        C  0.01895188  0.11679195  0.56452712     0.98200
O101        O  0.99426741  0.13605234  0.56745834    -0.82400
O102        O  0.42691650  0.16059034  0.56810957    -0.85000
C103        C  0.42017566  0.17041857  0.60122610     1.02600
O104        O  0.42214183  0.15190451  0.62877028    -0.77800
O105        O  0.43544795  0.09927705  0.67117237    -0.78000
C106        C  0.46873146  0.09992804  0.67643521     1.02600
Cr107      Cr  0.47353988  0.07047896  0.60617710     1.93700
Cr108      Cr  0.44932412  0.11963402  0.55010290     1.93200
Cr109      Cr  0.40772513  0.10826012  0.62235129     1.39100
O110        O  0.44356196  0.09991974  0.59307778    -1.23100
O111        O  0.12169506  0.43827374  0.37596181    -0.85300
O112        O  0.13890535  0.38415320  0.41243655    -0.82400
C113        C  0.13763965  0.39050449  0.44750637     0.98100
O114        O  0.10988784  0.40051397  0.46181888    -0.82400
O115        O  0.04314339  0.42143092  0.47288724    -0.85100
C116        C  0.04487157  0.45040600  0.46411152     1.02700
O117        O  0.05542226  0.45775108  0.43210112    -0.77800
O118        O  0.07209947  0.45930763  0.35945445    -0.78000
C119        C  0.10414984  0.46234313  0.36836118     1.02600
O120        O  0.07408714  0.40462819  0.32308104    -0.85300
O121        O  0.08947893  0.35200836  0.36467512    -0.82400
C122        C  0.09304714  0.33381087  0.39225827     0.98200
O123        O  0.08736789  0.34342455  0.42569530    -0.82400
O124        O  0.01964921  0.36698058  0.43087274    -0.85000
C125        C  0.49479688  0.38614990  0.43377988     1.02600
O126        O  0.49841371  0.41379707  0.42064893    -0.77800
O127        O  0.02156489  0.40926388  0.34745218    -0.78000
C128        C  0.04060017  0.40420793  0.31937846     1.02600
Cr129      Cr  0.10377767  0.39555478  0.37057945     1.93700
Cr130      Cr  0.06527913  0.38408126  0.44495211     1.93200
Cr131      Cr  0.03856344  0.43300394  0.39025404     1.39100
O132        O  0.06894729  0.40357044  0.40153967    -1.23100
O133        O  0.37276645  0.31627180  0.61756074    -0.85300
O134        O  0.38863290  0.36975256  0.57963561    -0.82400
C135        C  0.38775777  0.36236678  0.54479699     0.98100
O136        O  0.36021501  0.35186096  0.53034963    -0.82400
O137        O  0.29294403  0.33050356  0.51973827    -0.85100
C138        C  0.29449105  0.30161614  0.52919610     1.02700
O139        O  0.30553794  0.29444056  0.56114006    -0.77800
O140        O  0.32346770  0.29449824  0.63383577    -0.78000
C141        C  0.35571730  0.29207809  0.62549530     1.01000
O142        O  0.32437777  0.34991361  0.66964080    -0.85300
O143        O  0.33794843  0.40225604  0.62605375    -0.82400
C144        C  0.34207709  0.42012646  0.59819579     0.98200
O145        O  0.33737327  0.40956885  0.56494066    -0.82400
O146        O  0.26994038  0.38558995  0.56076346    -0.85000
C147        C  0.24512149  0.36644949  0.55838683     1.02600
O148        O  0.24867091  0.33895805  0.57210666    -0.77800
O149        O  0.27202504  0.34426200  0.64519517    -0.78000
C150        C  0.29089673  0.34953001  0.67341860     1.02600
Cr151      Cr  0.35369569  0.35875815  0.62170673     1.93700
Cr152      Cr  0.31539437  0.36834817  0.54678782     1.93200
Cr153      Cr  0.28915389  0.32007353  0.60269073     1.39100
O154        O  0.31924339  0.34950607  0.59066980    -1.23100
O155        O  0.18758954  0.20877845  0.36188182    -0.85300
O156        O  0.20570094  0.20817130  0.43454525    -0.82400
C157        C  0.21594407  0.20050703  0.46666132     0.98100
O158        O  0.21784850  0.17153614  0.47550353    -0.82400
O159        O  0.15089497  0.15028987  0.46450386    -0.85100
C160        C  0.12335554  0.13961322  0.45020876     1.02700
O161        O  0.12263189  0.13253436  0.41530399    -0.77800
O162        O  0.13839305  0.18689068  0.37792636    -0.78000
C163        C  0.15528025  0.21121350  0.37003021     1.02600
O164        O  0.23903251  0.15909204  0.34958115    -0.85300
O165        O  0.26255229  0.16386089  0.42276673    -0.82400
C166        C  0.26639934  0.13622398  0.43593279     0.98200
O167        O  0.24152907  0.11708393  0.43395498    -0.82400
O168        O  0.17435007  0.09295993  0.42914418    -0.85000
C169        C  0.16956154  0.08295731  0.39570369     1.02600
O170        O  0.17320007  0.10112149  0.36809097    -0.77800
O171        O  0.18629967  0.15394507  0.32570587    -0.78000
C172        C  0.21970262  0.15403672  0.32161840     1.02600
Cr173      Cr  0.22197816  0.18290171  0.39259183     1.93700
Cr174      Cr  0.19587366  0.13403340  0.44791941     1.93200
Cr175      Cr  0.15735835  0.14441387  0.37335020     1.39100
O176        O  0.19194963  0.15332744  0.40433545    -1.23100
C177        C  0.24236799  0.28183927  0.49533873    -0.12200
C178        C  0.27661086  0.27637578  0.50825965     0.04800
C179        C  0.28860039  0.24503298  0.51172100    -0.07500
C180        C  0.26652389  0.22005558  0.50237533    -0.08300
C181        C  0.23254401  0.22550148  0.48896962    -0.02800
C182        C  0.22003613  0.25677801  0.48622622     0.04000
N183        N  0.18455869  0.26319803  0.47478984     0.66500
H184        H  0.23206887  0.30568144  0.49478335     0.15400
H185        H  0.27697821  0.19626413  0.50311161     0.15100
N186        N  0.32349240  0.23828748  0.52420946     0.74200
O187        O  0.17757034  0.28704069  0.45492639    -0.39300
O188        O  0.15978552  0.24629348  0.48673507    -0.39200
O189        O  0.32836477  0.22109296  0.55275515    -0.39900
O190        O  0.34915161  0.24550835  0.50360643    -0.40000
C191        C  0.47416633  0.36034990  0.49250000    -0.12200
C192        C  0.46612404  0.37876731  0.46045394     0.04800
C193        C  0.43290116  0.39298613  0.45796975    -0.07500
C194        C  0.40824597  0.38786781  0.48647871    -0.08300
C195        C  0.41643422  0.36965955  0.51847850    -0.02800
C196        C  0.44986425  0.35621113  0.52166415     0.04000
N197        N  0.45943525  0.33828865  0.55414924     0.66500
H198        H  0.50002046  0.35011417  0.49574609     0.15400
H199        H  0.38239316  0.39822337  0.48362952     0.15100
N200        N  0.42365691  0.41234011  0.42655520     0.74200
O201        O  0.46048348  0.30873955  0.55227355    -0.39300
O202        O  0.47255104  0.35198210  0.58231006    -0.39200
O203        O  0.40938900  0.40019154  0.39801974    -0.39900
O204        O  0.42428989  0.44181820  0.42985155    -0.40000
C205        C  0.15713864  0.36899955  0.50867556    -0.12200
C206        C  0.16627702  0.38303414  0.47405365     0.04800
C207        C  0.20120835  0.39170932  0.46777653    -0.07500
C208        C  0.22606121  0.38722008  0.49644255    -0.08300
C209        C  0.21680657  0.37344949  0.53122449    -0.02800
C210        C  0.18208042  0.36391648  0.53698833     0.04000
N211        N  0.17138548  0.35061455  0.57206366     0.66500
H212        H  0.13020347  0.36223354  0.51397982     0.15400
H213        H  0.25301178  0.39390388  0.49111523     0.15100
N214        N  0.21157259  0.40596528  0.43311782     0.74200
O215        O  0.16185262  0.36852731  0.59835388    -0.39300
O216        O  0.16492428  0.32163164  0.57420099    -0.39200
O217        O  0.21552631  0.43532694  0.43138967    -0.39900
O218        O  0.22266401  0.38899930  0.40662624    -0.40000
C219        C  0.15075387  0.99544661  0.39748575    -0.12200
C220        C  0.12165119  0.99344764  0.37290463     0.04800
C221        C  0.10878241  0.02120507  0.35625973    -0.07500
C222        C  0.12543069  0.04984650  0.36363016    -0.08300
C223        C  0.15425043  0.05173045  0.38838772    -0.02800
C224        C  0.16670026  0.02424665  0.40568841     0.04000
N225        N  0.19587646  0.02512164  0.43096259     0.66500
H226        H  0.16119722  0.47447737  0.41056951     0.15400
H227        H  0.11516360  0.07102779  0.35050722     0.15100
N228        N  0.07889809  0.02079346  0.33195488     0.74200
O229        O  0.19067685  0.02699443  0.46595878    -0.39300
O230        O  0.22628143  0.01934591  0.41889096    -0.39200
O231        O  0.04907766  0.02760759  0.34490951    -0.39900
O232        O  0.08306460  0.01855584  0.29683143    -0.40000
C233        C  0.09169455  0.27585994  0.39958589    -0.12200
C234        C  0.10807415  0.30248084  0.38523863     0.04800
C235        C  0.13916560  0.29904535  0.36399620    -0.07500
C236        C  0.15384896  0.26922689  0.35847330    -0.08300
C237        C  0.13753428  0.24231468  0.37285522    -0.02800
C238        C  0.10562419  0.24598261  0.39297652     0.04000
N239        N  0.08678354  0.21961756  0.40701936     0.66500
H240        H  0.06761906  0.27819742  0.41548723     0.15400
H241        H  0.17831699  0.26723142  0.34323952     0.15100
N242        N  0.15716288  0.32584927  0.34950648     0.74200
O243        O  0.08917524  0.21235782  0.44140240    -0.39300
O244        O  0.06294194  0.20770238  0.38698176    -0.39200
O245        O  0.18209050  0.33759107  0.36811619    -0.39900
O246        O  0.15261584  0.33394864  0.31563681    -0.40000
C247        C  0.36946691  0.00605379  0.58687972    -0.12200
C248        C  0.39064270  0.01030517  0.61905770     0.04800
C249        C  0.39572375  0.48471943  0.64406032    -0.07500
C250        C  0.37847057  0.45620211  0.63727989    -0.08300
C251        C  0.35709424  0.45184797  0.60516092    -0.02800
C252        C  0.35297313  0.47706274  0.57981004     0.04000
N253        N  0.33260623  0.47377757  0.54624047     0.66500
H254        H  0.36600819  0.02519859  0.56698490     0.15400
H255        H  0.38287719  0.43693101  0.65676070     0.15100
N256        N  0.41814822  0.48750586  0.67616461     0.74200
O257        O  0.30130280  0.98139701  0.54515709    -0.39300
O258        O  0.34768244  0.46800494  0.51543265    -0.39200
O259        O  0.40501101  0.48973804  0.70861519    -0.39900
O260        O  0.45063933  0.48274565  0.67271168    -0.40000
C261        C  0.38282935  0.20676319  0.63880627    -0.12200
C262        C  0.40573131  0.20237506  0.60804209     0.04800
C263        C  0.41223172  0.22794021  0.58386442    -0.07500
C264        C  0.39643145  0.25706023  0.59101164    -0.08300
C265        C  0.37341023  0.26128800  0.62156841    -0.02800
C266        C  0.36662321  0.23580875  0.64563941     0.04000
N267        N  0.34390252  0.23920072  0.67740290     0.66500
H268        H  0.37706391  0.18736219  0.65756656     0.15400
H269        H  0.40129165  0.27629640  0.57171896     0.15100
N270        N  0.43465227  0.22475145  0.55192831     0.74200
O271        O  0.31814541  0.22097776  0.68154121    -0.39300
O272        O  0.35019622  0.25974252  0.70205741    -0.39200
O273        O  0.42162006  0.21924400  0.51992835    -0.39900
O274        O  0.46674122  0.23149122  0.55475593    -0.40000
C275        C  0.48129543  0.99602112  0.52369589    -0.12200
C276        C  0.48638150  0.02700144  0.51033995     0.04800
C277        C  0.01294737  0.03246166  0.48350055    -0.07500
C278        C  0.03435875  0.00744690  0.47240731    -0.08300
C279        C  0.02890983  0.47609043  0.48637407    -0.02800
C280        C  0.50214979  0.47067506  0.51278374     0.04000
N281        N  0.49664774  0.44030667  0.52932985     0.66500
H282        H  0.46052759  0.49106671  0.54453750     0.15400
H283        H  0.05424316  0.01206414  0.45127296     0.15100
N284        N  0.01828490  0.06271015  0.46659474     0.74200
O285        O  0.52200449  0.42603448  0.54462728    -0.39300
O286        O  0.46585645  0.43082280  0.53549539    -0.39200
O287        O  0.04897201  0.07146826  0.45857915    -0.39900
O288        O  0.99265436  0.07713731  0.45206203    -0.40000
C289        C  0.28754699  0.11457780  0.49657796    -0.12200
C290        C  0.29565548  0.12877553  0.46175163     0.04800
C291        C  0.33019282  0.13844135  0.45486314    -0.07500
C292        C  0.35596335  0.13353680  0.48241220    -0.08300
C293        C  0.34781978  0.11943080  0.51725689    -0.02800
C294        C  0.31322349  0.11011114  0.52434995     0.04000
N295        N  0.30404332  0.09523891  0.55902419     0.66500
H296        H  0.26083557  0.10758419  0.50269297     0.15400
H297        H  0.38266268  0.14065236  0.47642778     0.15100
N298        N  0.33982633  0.15164837  0.41938025     0.74200
O299        O  0.29165664  0.11137453  0.58560397    -0.39300
O300        O  0.30397815  0.06568002  0.56132832    -0.39200
O301        O  0.34914286  0.18000870  0.41741933    -0.39900
O302        O  0.34531332  0.13367147  0.39184424    -0.40000
C303        C  0.10492973  0.11720994  0.51105951    -0.12200
C304        C  0.09483756  0.13180742  0.47692638     0.04800
C305        C  0.05956655  0.14119935  0.47221308    -0.07500
C306        C  0.03641370  0.13800694  0.50268883    -0.08300
C307        C  0.04668680  0.12362598  0.53673910    -0.02800
C308        C  0.08107316  0.11240737  0.54039837     0.04000
N309        N  0.09233261  0.09673528  0.57393855     0.66500
H310        H  0.13178622  0.10946796  0.51501754     0.15400
H311        H  0.00930331  0.14500754  0.49886629     0.15100
N312        N  0.04626360  0.15288790  0.43697699     0.74200
O313        O  0.09516168  0.06722204  0.57427049    -0.39300
O314        O  0.10435046  0.11248828  0.60108434    -0.39200
O315        O  0.05423704  0.13926900  0.40667460    -0.39900
O316        O  0.02095967  0.17204674  0.43676698    -0.40000
C317        C  0.29001685  0.14826874  0.24493115    -0.12200
C318        C  0.27088697  0.15560871  0.21237383     0.04800
C319        C  0.23393068  0.15995567  0.21597875    -0.07500
C320        C  0.21758020  0.15727849  0.25122123    -0.08300
C321        C  0.23693469  0.15115229  0.28391280    -0.02800
C322        C  0.27363804  0.14602245  0.28025090     0.04000
N323        N  0.29503159  0.13909397  0.31227494     0.66500
H324        H  0.31814619  0.14454740  0.24316267     0.15400
H325        H  0.18959238  0.16174561  0.25317222     0.15100
N326        N  0.21249642  0.16866585  0.18455379     0.74200
O327        O  0.29670296  0.11134803  0.32468549    -0.39300
O328        O  0.31616602  0.15949396  0.32436513    -0.39200
O329        O  0.19055166  0.14932506  0.17167341    -0.39900
O330        O  0.21055221  0.19713697  0.17482717    -0.40000
C331        C  0.21931915  0.35344958  0.74945645    -0.12200
C332        C  0.23891184  0.35543268  0.78269771     0.04800
C333        C  0.27604710  0.35770372  0.77951625    -0.07500
C334        C  0.29240877  0.35652443  0.74402198    -0.08300
C335        C  0.27282465  0.35325915  0.71080878    -0.02800
C336        C  0.23556443  0.35226434  0.71406043     0.04000
N337        N  0.21341699  0.34942289  0.68175959     0.66500
H338        H  0.19095791  0.35174653  0.75083707     0.15400
H339        H  0.32079772  0.35769108  0.74261935     0.15100
N340        N  0.29780099  0.36102440  0.81206630     0.74200
O341        O  0.20341565  0.32260033  0.67126695    -0.39300
O342        O  0.19865277  0.37356762  0.66850386    -0.39200
O343        O  0.31455783  0.33762553  0.82454672    -0.39900
O344        O  0.30462069  0.38807013  0.82445330    -0.40000
C345        C  0.24388870  0.22403373  0.99294668    -0.12200
C346        C  0.27650522  0.23111635  0.00900133     0.04800
C347        C  0.28603962  0.26298186  0.01367784    -0.07500
C348        C  0.26289000  0.28687816  0.00288570    -0.08300
C349        C  0.23035598  0.27980502  0.98669297    -0.02800
C350        C  0.22072567  0.24796549  0.98215212     0.04000
N351        N  0.18715310  0.23963660  0.96720664     0.66500
H352        H  0.23534906  0.19979127  0.99088379     0.15400
H353        H  0.27143915  0.31111668  0.00498816     0.15100
N354        N  0.31950948  0.27141593  0.02879549     0.74200
O355        O  0.18519019  0.22379680  0.93730381    -0.39300
O356        O  0.16007928  0.24351047  0.98700544    -0.39200
O357        O  0.34651802  0.26866323  0.00863491    -0.39900
O358        O  0.32125894  0.28659916  0.05920529    -0.40000
C359        C  0.46921701  0.40063279  0.24342020    -0.12200
C360        C  0.48893618  0.40112671  0.21029229     0.04800
C361        C  0.02609295  0.39860390  0.21339119    -0.07500
C362        C  0.04244398  0.39886404  0.24891266    -0.08300
C363        C  0.02272237  0.40022998  0.28208987    -0.02800
C364        C  0.48543306  0.39970603  0.27885541     0.04000
N365        N  0.46335791  0.39862582  0.31130001     0.66500
H366        H  0.44079763  0.40167943  0.24199633     0.15400
H367        H  0.07087001  0.39823197  0.25042483     0.15100
N368        N  0.04768173  0.39545695  0.18074750     0.74200
O369        O  0.44839193  0.42331627  0.32251403    -0.39300
O370        O  0.45434728  0.37241628  0.32475457    -0.39200
O371        O  0.06910060  0.41686151  0.17225293    -0.39900
O372        O  0.04887328  0.36955342  0.16363259    -0.40000
C373        C  0.09552252  0.40006867  0.99494856    -0.12200
C374        C  0.09069037  0.37478234  0.97009871     0.04800
C375        C  0.06259223  0.35414795  0.97608376    -0.07500
C376        C  0.03992382  0.35909889  0.00657111    -0.08300
C377        C  0.04411667  0.38481287  0.03122754    -0.02800
C378        C  0.07260196  0.40532396  0.02519527     0.04000
N379        N  0.07916893  0.43107929  0.04994976     0.66500
H380        H  0.11806527  0.41532151  0.99152910     0.15400
H381        H  0.01792824  0.34324621  0.00992034     0.15100
N382        N  0.05683610  0.32801130  0.95160251     0.74200
O383        O  0.08950808  0.42591224  0.08318709    -0.39300
O384        O  0.07878576  0.45881281  0.03737071    -0.39200
O385        O  0.05128480  0.30110673  0.96527277    -0.39900
O386        O  0.05263345  0.33252433  0.91673630    -0.40000
C387        C  0.35183815  0.37118965  0.98665801    -0.12200
C388        C  0.34239928  0.38383359  0.02193743     0.04800
C389        C  0.30675143  0.39028567  0.02908694    -0.07500
C390        C  0.28226056  0.38661873  0.99980198    -0.08300
C391        C  0.29200694  0.37481629  0.96433052    -0.02800
C392        C  0.32696425  0.36608938  0.95829438     0.04000
N393        N  0.33781746  0.35320680  0.92310450     0.66500
H394        H  0.37905630  0.36550506  0.98086229     0.15400
H395        H  0.25486000  0.39172113  0.00535185     0.15100
N396        N  0.29479849  0.40043126  0.06535550     0.74200
O397        O  0.34557225  0.37134145  0.89625813    -0.39300
O398        O  0.34504020  0.32436225  0.92080876    -0.39200
O399        O  0.27035479  0.42035998  0.06752547    -0.39900
O400        O  0.30289874  0.38482809  0.09436348    -0.40000
C401        C  0.40557998  0.02371534  0.13282072    -0.12200
C402        C  0.38725315  0.99641748  0.12286443     0.04800
C403        C  0.35397638  0.99988917  0.10506540    -0.07500
C404        C  0.34014921  0.02983532  0.09751131    -0.08300
C405        C  0.35842015  0.05682159  0.10789993    -0.02800
C406        C  0.39148452  0.05361235  0.12561418     0.04000
N407        N  0.41204222  0.08062125  0.13449474     0.66500
H408        H  0.43135631  0.02195613  0.14549140     0.15400
H409        H  0.31481117  0.03197193  0.08390473     0.15100
N410        N  0.33418099  0.47315919  0.09303465     0.74200
O411        O  0.41361371  0.09013987  0.16806255    -0.39300
O412        O  0.43379147  0.09080246  0.11072955    -0.39200
O413        O  0.31515346  0.45882703  0.11643392    -0.39900
O414        O  0.33374542  0.46533584  0.05879098    -0.40000
C415        C  0.38067805  0.30227904  0.13794792    -0.12200
C416        C  0.40526247  0.30536565  0.10853956     0.04800
C417        C  0.41257160  0.27918380  0.08587770    -0.07500
C418        C  0.39563202  0.25064642  0.09316524    -0.08300
C419        C  0.37111739  0.24755450  0.12259244    -0.02800
C420        C  0.36341355  0.27384187  0.14486950     0.04000
N421        N  0.33854760  0.27195694  0.17478813     0.66500
H422        H  0.37409559  0.32243479  0.15529666     0.15400
H423        H  0.40148070  0.23063086  0.07524862     0.15100
N424        N  0.43759071  0.28102188  0.05603002     0.74200
O425        O  0.34832369  0.26295018  0.20703028    -0.39300
O426        O  0.30834406  0.28357060  0.17049650    -0.39200
O427        O  0.46947859  0.28596281  0.06344484    -0.39900
O428        O  0.42850801  0.27465777  0.02271746    -0.40000
C429        C  0.48509611  0.10337919  0.78256753    -0.12200
C430        C  0.02188857  0.10677686  0.78426613     0.04800
C431        C  0.04013889  0.11112202  0.75026052    -0.07500
C432        C  0.02194151  0.11012978  0.71584858    -0.08300
C433        C  0.48543543  0.10481079  0.71411456    -0.02800
C434        C  0.46692488  0.10219777  0.74818050     0.04000
N435        N  0.43002666  0.09650957  0.74850601     0.66500
H436        H  0.47002881  0.10032081  0.80813885     0.15400
H437        H  0.03692466  0.11295279  0.69017233     0.15100
N438        N  0.07715916  0.11610889  0.74996812     0.74200
O439        O  0.41873745  0.06872663  0.74666674    -0.39300
O440        O  0.40913920  0.11859099  0.75605930    -0.39200
O441        O  0.09745757  0.09408317  0.74057648    -0.39900
O442        O  0.08912620  0.14351441  0.75379502    -0.40000
C443        C  0.02482573  0.00117361  0.96865524    -0.12200
C444        C  0.02436862  0.03117828  0.98577378     0.04800
C445        C  0.00085303  0.03654113  0.01538671    -0.07500
C446        C  0.47777873  0.01260533  0.02616184    -0.08300
C447        C  0.47879337  0.48251887  0.00969273    -0.02800
C448        C  0.00266944  0.47712888  0.98032158     0.04000
N449        N  0.00321595  0.44802956  0.96014361     0.66500
H450        H  0.04214029  0.99646851  0.94513117     0.15400
H451        H  0.46044279  0.01726190  0.04969306     0.15100
N452        N  0.50036686  0.06564960  0.03521376     0.74200
O453        O  0.97556343  0.43828151  0.94448677    -0.39300
O454        O  0.03206786  0.43505061  0.95243520    -0.39200
O455        O  0.47207124  0.08070232  0.03867490    -0.39900
O456        O  0.02693746  0.07339315  0.05480287    -0.40000
C457        C  0.13168534  0.20856208  0.85931946    -0.12200
C458        C  0.10530702  0.20584967  0.88686376     0.04800
C459        C  0.09520816  0.23270944  0.90694334    -0.07500
C460        C  0.11105387  0.26159756  0.89887348    -0.08300
C461        C  0.13766277  0.26431866  0.87156167    -0.02800
C462        C  0.14819223  0.23728333  0.85194237     0.04000
N463        N  0.17554104  0.23856639  0.82459527     0.66500
H464        H  0.14032600  0.18788455  0.84395726     0.15400
H465        H  0.10306532  0.28209619  0.91502034     0.15100
N466        N  0.06863502  0.23108154  0.93512562     0.74200
O467        O  0.20608588  0.22975138  0.83340367    -0.39300
O468        O  0.16815272  0.24402061  0.79054575    -0.39200
O469        O  0.07708801  0.23061580  0.96950128    -0.39900
O470        O  0.03680135  0.23368051  0.92587583    -0.40000
C471        C  0.15416243  0.47758870  0.91501364    -0.12200
C472        C  0.15254667  0.45503759  0.88645008     0.04800
C473        C  0.13316446  0.46224350  0.85323724    -0.07500
C474        C  0.11664720  0.49153738  0.84916451    -0.08300
C475        C  0.11916161  0.01435031  0.87707393    -0.02800
C476        C  0.13769035  0.50681684  0.91087479     0.04000
N477        N  0.13839243  0.52809530  0.94190986     0.66500
H478        H  0.16785093  0.47234113  0.94117163     0.15400
H479        H  0.10079558  0.99651250  0.82387618     0.15100
N480        N  0.12830783  0.43951811  0.82418141     0.74200
O481        O  0.11686071  0.52441194  0.96845466    -0.39300
O482        O  0.16766603  0.04429518  0.94617077    -0.39200
O483        O  0.10129044  0.42246411  0.82424498    -0.39900
O484        O  0.14801937  0.43979346  0.79570851    -0.40000
C485        C  0.15594425  0.13679659  0.01273380    -0.12200
C486        C  0.16500689  0.12499045  0.97695607     0.04800
C487        C  0.20045060  0.11865002  0.96911119    -0.07500
C488        C  0.22559539  0.12281116  0.99756877    -0.08300
C489        C  0.21641900  0.13469515  0.03321498    -0.02800
C490        C  0.18131254  0.14223352  0.04046257     0.04000
N491        N  0.17081709  0.15416585  0.07624961     0.66500
H492        H  0.12877011  0.14203373  0.01922860     0.15400
H493        H  0.25287916  0.11791910  0.99122059     0.15100
N494        N  0.21135771  0.10779855  0.93286077     0.74200
O495        O  0.16990005  0.18343304  0.08152123    -0.39300
O496        O  0.15600012  0.13610490  0.09946861    -0.39200
O497        O  0.20867577  0.12579236  0.90470702    -0.39900
O498        O  0.23004034  0.08341546  0.93038670    -0.40000
C499        C  0.47039856  0.15299184  0.99014280    -0.12200
C500        C  0.46427811  0.12995348  0.96231009     0.04800
C501        C  0.43365922  0.11163594  0.96481139    -0.07500
C502        C  0.41032678  0.11632679  0.99468485    -0.08300
C503        C  0.41701133  0.13875169  0.02278739    -0.02800
C504        C  0.44734800  0.15720546  0.02045749     0.04000
N505        N  0.45496913  0.18036591  0.04840318     0.66500
H506        H  0.49410886  0.16692428  0.98948161     0.15400
H507        H  0.38632406  0.10277089  0.99555565     0.15100
N508        N  0.42552030  0.08862640  0.93693157     0.74200
O509        O  0.45996034  0.17208358  0.08214838    -0.39300
O510        O  0.46162995  0.20821031  0.03859814    -0.39200
O511        O  0.42591805  0.05985775  0.94547932    -0.39900
O512        O  0.41369384  0.09717752  0.90529782    -0.40000
O513        O  0.07093227  0.54878394  0.86234512    -0.85300
O514        O  0.05387664  0.55051358  0.93444005    -0.82400
C515        C  0.04212552  0.55728191  0.96599227     0.98100
O516        O  0.04054844  0.58617508  0.97534226    -0.82400
O517        O  0.10783895  0.60760251  0.96518898    -0.85100
C518        C  0.13566560  0.61757456  0.95086320     1.02700
O519        O  0.13686446  0.62398170  0.91579268    -0.77800
O520        O  0.12027690  0.56927712  0.88051740    -0.78000
C521        C  0.10267678  0.54543971  0.87242117     1.02600
O522        O  0.02031343  0.59913540  0.84958969    -0.85300
O523        O  0.49657439  0.59461546  0.92276155    -0.82400
C524        C  0.49287613  0.62231248  0.93561691     0.98200
O525        O  0.01768491  0.64106241  0.93250346    -0.82400
O526        O  0.08519838  0.66456226  0.92806767    -0.85000
C527        C  0.09080731  0.67415440  0.89450377     1.02600
O528        O  0.08775760  0.65567993  0.86716888    -0.77800
O529        O  0.07325411  0.60275842  0.82598667    -0.78000
C530        C  0.03982747  0.60344298  0.82164876     1.02600
Cr531      Cr  0.03698371  0.57519206  0.89261581     1.93700
Cr532      Cr  0.06311589  0.62383649  0.94755095     1.93200
Cr533      Cr  0.10234916  0.61216567  0.87381819     1.39100
O534        O  0.06722741  0.60442250  0.90428676    -1.23100
O535        O  0.38759100  0.94062872  0.11938983    -0.85300
O536        O  0.37132645  0.88601585  0.08258677    -0.82400
C537        C  0.37094803  0.89282716  0.04759511     0.98100
O538        O  0.39775257  0.90418974  0.03248348    -0.82400
O539        O  0.46395564  0.92747532  0.02010107    -0.85100
C540        C  0.46186297  0.95621363  0.02994325     1.02700
O541        O  0.45115909  0.96240481  0.06211697    -0.77800
O542        O  0.43689733  0.96227143  0.13505000    -0.78000
C543        C  0.40458956  0.96500309  0.12686129     1.02600
O544        O  0.43759966  0.90704146  0.16986751    -0.85300
O545        O  0.42366277  0.85494514  0.12797560    -0.82400
C546        C  0.41955378  0.83692324  0.10041881     0.98200
O547        O  0.42361854  0.84719862  0.06689170    -0.82400
O548        O  0.49032237  0.87265259  0.06027537    -0.85000
C549        C  0.01471987  0.89218345  0.05713932     1.02600
O550        O  0.01042345  0.91965546  0.07051201    -0.77800
O551        O  0.48962770  0.91319333  0.14466098    -0.78000
C552        C  0.47111884  0.90664689  0.17280175     1.02600
Cr553      Cr  0.40712045  0.89806088  0.12336931     1.93700
Cr554      Cr  0.44371837  0.88886827  0.04771808     1.93200
Cr555      Cr  0.47046261  0.93734935  0.10268125     1.39100
O556        O  0.44070212  0.90747480  0.09160184    -1.23100
O557        O  0.13745534  0.81933485  0.87263517    -0.85300
O558        O  0.12002438  0.87344668  0.90929287    -0.82400
C559        C  0.11923487  0.86587879  0.94407193     0.98100
O560        O  0.14596576  0.85478003  0.95977384    -0.82400
O561        O  0.21283710  0.83320491  0.97354087    -0.85100
C562        C  0.21212073  0.80437167  0.96414977     1.02700
O563        O  0.20282374  0.79708641  0.93163311    -0.77800
O564        O  0.18729588  0.79764406  0.85823268    -0.78000
C565        C  0.15492947  0.79505815  0.86578663     1.02600
O566        O  0.18728297  0.85285018  0.82259091    -0.85300
O567        O  0.17237404  0.90542850  0.86511725    -0.82400
C568        C  0.16703799  0.92308671  0.89281588     0.98200
O569        O  0.17091412  0.91239037  0.92621751    -0.82400
O570        O  0.23824660  0.88796403  0.93442361    -0.85000
C571        C  0.26306242  0.86864582  0.93695493     1.02600
O572        O  0.25983729  0.84141639  0.92270424    -0.77800
O573        O  0.23919345  0.84717555  0.84835554    -0.78000
C574        C  0.22080888  0.85247954  0.81965098     1.02600
Cr575      Cr  0.15650007  0.86191630  0.86902286     1.93700
Cr576      Cr  0.19181884  0.87104319  0.94554871     1.93200
Cr577      Cr  0.22049694  0.82295266  0.89059062     1.39100
O578        O  0.18991431  0.85248476  0.90144134    -1.23100
O579        O  0.32116749  0.71411922  0.13568298    -0.85300
O580        O  0.30444016  0.71364470  0.06262347    -0.82400
C581        C  0.29388469  0.70620264  0.03063715     0.98100
O582        O  0.29279896  0.67727274  0.02161914    -0.82400
O583        O  0.36006798  0.65656639  0.03318831    -0.85100
C584        C  0.38762831  0.64653814  0.04817646     1.02700
O585        O  0.38828082  0.63943558  0.08310512    -0.77800
O586        O  0.37083058  0.69268916  0.12027769    -0.78000
C587        C  0.35335589  0.71681137  0.12746070     1.02600
O588        O  0.27045312  0.66396170  0.14674150    -0.85300
O589        O  0.24792533  0.66891598  0.07355158    -0.82400
C590        C  0.24457890  0.64137310  0.06022732     0.98200
O591        O  0.26962680  0.62231866  0.06257746    -0.82400
O592        O  0.33752130  0.59870444  0.06801595    -0.85000
C593        C  0.34286385  0.58829127  0.10128579     1.02600
O594        O  0.33882240  0.60594243  0.12927921    -0.77800
O595        O  0.32262089  0.65851657  0.17194035    -0.78000
C596        C  0.28908781  0.65911233  0.17527235     1.02600
Cr597      Cr  0.28781216  0.68807951  0.10428450     1.93700
Cr598      Cr  0.31525550  0.63974639  0.04928638     1.93200
Cr599      Cr  0.35279980  0.64995058  0.12462220     1.39100
O600        O  0.31836794  0.65865795  0.09309878    -1.23100
O601        O  0.43849215  0.54449630  0.63591542    -0.85300
O602        O  0.45808248  0.54522983  0.56394144    -0.82400
C603        C  0.46954964  0.55251416  0.53225430     0.98100
O604        O  0.47152622  0.58150769  0.52338044    -0.82400
O605        O  0.40462989  0.60393163  0.53033673    -0.85100
C606        C  0.37621946  0.61305448  0.54414358     1.02700
O607        O  0.37396900  0.61932655  0.57917880    -0.77800
O608        O  0.38964089  0.56528843  0.61642503    -0.78000
C609        C  0.40692637  0.54133617  0.62525157     1.02600
O610        O  0.48880612  0.59465104  0.64925810    -0.85300
O611        O  0.01455190  0.58899007  0.57710590    -0.82400
C612        C  0.01844662  0.61664010  0.56423920     0.98200
O613        O  0.99372484  0.63586405  0.56713359    -0.82400
O614        O  0.42640215  0.66037060  0.56792520    -0.85000
C615        C  0.41979445  0.67029324  0.60103464     1.02600
O616        O  0.42179933  0.65184379  0.62864265    -0.77800
O617        O  0.43532037  0.59931871  0.67120517    -0.78000
C618        C  0.46861988  0.59996350  0.67636301     1.02600
Cr619      Cr  0.47326813  0.57040420  0.60616582     1.93700
Cr620      Cr  0.44880535  0.61937891  0.55000384     1.93200
Cr621      Cr  0.40743891  0.60815557  0.62243744     1.39100
O622        O  0.44320469  0.59977720  0.59307267    -1.23100
O623        O  0.12204932  0.93827229  0.37547032    -0.85300
O624        O  0.13892828  0.88417213  0.41213197    -0.82400
C625        C  0.13759224  0.89065327  0.44717578     0.98100
O626        O  0.10980524  0.90073592  0.46133229    -0.82400
O627        O  0.04316117  0.92183016  0.47215198    -0.85100
C628        C  0.04503089  0.95079649  0.46336523     1.02700
O629        O  0.05565841  0.95809814  0.43137016    -0.77800
O630        O  0.07257343  0.95944828  0.35877707    -0.78000
C631        C  0.10460406  0.96238703  0.36782573     1.02600
O632        O  0.07440692  0.90471157  0.32249330    -0.85300
O633        O  0.08941028  0.85213695  0.36423735    -0.82400
C634        C  0.09287726  0.83395351  0.39183958     0.98200
O635        O  0.08720443  0.84362860  0.42525083    -0.82400
O636        O  0.01956961  0.86741864  0.43007933    -0.85000
C637        C  0.49473210  0.88662302  0.43298991     1.02600
O638        O  0.49845525  0.91426688  0.41986696    -0.77800
O639        O  0.02184889  0.90957062  0.34672451    -0.78000
C640        C  0.04092351  0.90434607  0.31872268     1.02600
Cr641      Cr  0.10394321  0.89561987  0.37010961     1.93700
Cr642      Cr  0.06520861  0.88438322  0.44434923     1.93200
Cr643      Cr  0.03882238  0.93332701  0.38952415     1.39100
O644        O  0.06907257  0.90381668  0.40094365    -1.23100
O645        O  0.37295068  0.81638459  0.61706891    -0.85300
O646        O  0.38879963  0.86993571  0.57912598    -0.82400
C647        C  0.38793950  0.86257276  0.54427977     0.98100
O648        O  0.36043029  0.85197972  0.52984848    -0.82400
O649        O  0.29311980  0.83051086  0.51932332    -0.85100
C650        C  0.29456680  0.80163730  0.52888810     1.02700
O651        O  0.30562199  0.79451374  0.56084507    -0.77800
O652        O  0.32363896  0.79472257  0.63350534    -0.78000
C653        C  0.35586425  0.79222440  0.62509237     1.01000
O654        O  0.32462246  0.85006139  0.66923477    -0.85300
O655        O  0.33809601  0.90238549  0.62554272    -0.82400
C656        C  0.34219533  0.92026725  0.59768590     0.98200
O657        O  0.33750332  0.90970012  0.56442309    -0.82400
O658        O  0.27009358  0.88566923  0.56016032    -0.85000
C659        C  0.24528007  0.86651706  0.55789471     1.02600
O660        O  0.24881565  0.83907225  0.57173540    -0.77800
O661        O  0.27225953  0.84454845  0.64480269    -0.78000
C662        C  0.29114175  0.84972188  0.67304628     1.02600
Cr663      Cr  0.35388832  0.85889877  0.62122207     1.93700
Cr664      Cr  0.31557020  0.86842756  0.54628093     1.93200
Cr665      Cr  0.28931299  0.82025103  0.60233767     1.39100
O666        O  0.31942013  0.84963665  0.59020643    -1.23100
O667        O  0.18731880  0.70880198  0.36185887    -0.85300
O668        O  0.20539673  0.70821416  0.43452513    -0.82400
C669        C  0.21563485  0.70056748  0.46664762     0.98100
O670        O  0.21744389  0.67159963  0.47552960    -0.82400
O671        O  0.15042410  0.65045997  0.46441483    -0.85100
C672        C  0.12290569  0.63975158  0.45010519     1.02700
O673        O  0.12221377  0.63264159  0.41521350    -0.77800
O674        O  0.13807866  0.68696146  0.37785476    -0.78000
C675        C  0.15499892  0.71126390  0.36996445     1.02600
O676        O  0.23871978  0.65904448  0.34959774    -0.85300
O677        O  0.26217982  0.66378574  0.42283805    -0.82400
C678        C  0.26594658  0.63615550  0.43606398     0.98200
O679        O  0.24103346  0.61706260  0.43409046    -0.82400
O680        O  0.17384035  0.59305414  0.42917872    -0.85000
C681        C  0.16906872  0.58301519  0.39575003     1.02600
O682        O  0.17272952  0.60113527  0.36809517    -0.77800
O683        O  0.18598767  0.65395809  0.32568977    -0.78000
C684        C  0.21939359  0.65401457  0.32162153     1.02600
Cr685      Cr  0.22166119  0.68288823  0.39260067     1.93700
Cr686      Cr  0.19540240  0.63411045  0.44794782     1.93200
Cr687      Cr  0.15698904  0.64446767  0.37330718     1.39100
O688        O  0.19157317  0.65335679  0.40432649    -1.23100
C689        C  0.24231231  0.78188801  0.49518454    -0.12200
C690        C  0.27656031  0.77638020  0.50807323     0.04800
C691        C  0.28845276  0.74501113  0.51159609    -0.07500
C692        C  0.26632345  0.72006345  0.50226852    -0.08300
C693        C  0.23233923  0.72555427  0.48890260    -0.02800
C694        C  0.21990338  0.75685287  0.48615550     0.04000
N695        N  0.18440935  0.76331887  0.47482738     0.66500
H696        H  0.23206915  0.80574898  0.49459591     0.15400
H697        H  0.27672399  0.69625410  0.50303900     0.15100
N698        N  0.32329691  0.73819719  0.52415518     0.74200
O699        O  0.17742335  0.78711010  0.45487470    -0.39300
O700        O  0.15962888  0.74652195  0.48697230    -0.39200
O701        O  0.32803064  0.72161427  0.55323999    -0.39900
O702        O  0.34892934  0.74442475  0.50305756    -0.40000
C703        C  0.47407474  0.86048055  0.49149077    -0.12200
C704        C  0.46608734  0.87928329  0.45975139     0.04800
C705        C  0.43300317  0.89381844  0.45768087    -0.07500
C706        C  0.40843679  0.88863774  0.48628509    -0.08300
C707        C  0.41657752  0.87001164  0.51795478    -0.02800
C708        C  0.44986627  0.85622784  0.52071559     0.04000
N709        N  0.45935947  0.83776261  0.55278443     0.66500
H710        H  0.49981480  0.84995640  0.49443683     0.15400
H711        H  0.38267169  0.89921876  0.48373631     0.15100
N712        N  0.42377735  0.91349972  0.42655325     0.74200
O713        O  0.45982538  0.80823232  0.55034626    -0.39300
O714        O  0.47314743  0.85088400  0.58096973    -0.39200
O715        O  0.40959159  0.90164319  0.39779284    -0.39900
O716        O  0.42441221  0.94294093  0.43028191    -0.40000
C717        C  0.15690900  0.87063113  0.50919425    -0.12200
C718        C  0.16620467  0.88335258  0.47387911     0.04800
C719        C  0.20144373  0.89048093  0.46676104    -0.07500
C720        C  0.22646133  0.88577455  0.49521656    -0.08300
C721        C  0.21701834  0.87339826  0.53066911    -0.02800
C722        C  0.18197503  0.86539354  0.53733369     0.04000
N723        N  0.17114465  0.85362716  0.57313246     0.66500
H724        H  0.12978161  0.86496273  0.51516602     0.15400
H725        H  0.25362864  0.89132208  0.48930688     0.15100
N726        N  0.21200256  0.90347784  0.43147113     0.74200
O727        O  0.16194883  0.87269874  0.59836780    -0.39300
O728        O  0.16405615  0.82487283  0.57685960    -0.39200
O729        O  0.21483750  0.93283533  0.42791946    -0.39900
O730        O  0.22441932  0.88572112  0.40644574    -0.40000
C731        C  0.15074814  0.49544717  0.39714950    -0.12200
C732        C  0.12114465  0.49346114  0.37326765     0.04800
C733        C  0.10777669  0.52127880  0.35720029    -0.07500
C734        C  0.12442011  0.54995115  0.36444728    -0.08300
C735        C  0.15373072  0.55179596  0.38852275    -0.02800
C736        C  0.16670620  0.52426113  0.40522901     0.04000
N737        N  0.19644943  0.52510606  0.42972644     0.66500
H738        H  0.16077317  0.97452133  0.41135585     0.15400
H739        H  0.11377889  0.57118639  0.35178386     0.15100
N740        N  0.07736276  0.52090756  0.33366482     0.74200
O741        O  0.19205756  0.52660035  0.46487911    -0.39300
O742        O  0.22661967  0.51973450  0.41674876    -0.39200
O743        O  0.04778730  0.52737209  0.34748999    -0.39900
O744        O  0.08075971  0.51908597  0.29840783    -0.40000
C745        C  0.09148878  0.77600982  0.39941865    -0.12200
C746        C  0.10782286  0.80258056  0.38486928     0.04800
C747        C  0.13883874  0.79906069  0.36351721    -0.07500
C748        C  0.15353640  0.76923093  0.35815220    -0.08300
C749        C  0.13726411  0.74237265  0.37271880    -0.02800
C750        C  0.10539175  0.74610505  0.39289712     0.04000
N751        N  0.08653314  0.71977830  0.40702326     0.66500
H752        H  0.06745835  0.77840455  0.41538572     0.15400
H753        H  0.17795530  0.76717988  0.34283737     0.15100
N754        N  0.15673276  0.82579808  0.34870984     0.74200
O755        O  0.08883000  0.71264666  0.44145185    -0.39300
O756        O  0.06272937  0.70780210  0.38698643    -0.39200
O757        O  0.18219619  0.83727369  0.36670775    -0.39900
O758        O  0.15147120  0.83407544  0.31501871    -0.40000
C759        C  0.36903438  0.50596596  0.58747661    -0.12200
C760        C  0.39054486  0.51015776  0.61941063     0.04800
C761        C  0.39541092  0.98497084  0.64394035    -0.07500
C762        C  0.37817717  0.95646093  0.63707459    -0.08300
C763        C  0.35716223  0.95201764  0.60469285    -0.02800
C764        C  0.35337266  0.97716473  0.57917549     0.04000
N765        N  0.33329377  0.97383553  0.54541314     0.66500
H766        H  0.36529771  0.52516724  0.56771718     0.15400
H767        H  0.38229678  0.93727244  0.65674173     0.15100
N768        N  0.41733401  0.98788674  0.67642151     0.74200
O769        O  0.30062295  0.48136324  0.54629904    -0.39300
O770        O  0.34863946  0.96808714  0.51475322    -0.39200
O771        O  0.40369114  0.99070100  0.70856238    -0.39900
O772        O  0.44982362  0.98279977  0.67367682    -0.40000
C773        C  0.38252042  0.70679262  0.63847360    -0.12200
C774        C  0.40549101  0.70231038  0.60779382     0.04800
C775        C  0.41219115  0.72784636  0.58363642    -0.07500
C776        C  0.39650947  0.75703394  0.59072202    -0.08300
C777        C  0.37345409  0.76137172  0.62122772    -0.02800
C778        C  0.36645518  0.73590936  0.64526233     0.04000
N779        N  0.34361270  0.73937207  0.67691480     0.66500
H780        H  0.37658811  0.68740842  0.65719705     0.15400
H781        H  0.40150172  0.77624180  0.57143734     0.15100
N782        N  0.43473146  0.72456620  0.55181076     0.74200
O783        O  0.31776265  0.72123373  0.68091910    -0.39300
O784        O  0.34984629  0.75992621  0.70157203    -0.39200
O785        O  0.42177182  0.71989039  0.51958473    -0.39900
O786        O  0.46703638  0.73027274  0.55508135    -0.40000
C787        C  0.48068594  0.49573360  0.52372330    -0.12200
C788        C  0.48608861  0.52671731  0.51054009     0.04800
C789        C  0.01290356  0.53207633  0.48415227    -0.07500
C790        C  0.03439632  0.50703508  0.47333599    -0.08300
C791        C  0.02913278  0.97651334  0.48561927    -0.02800
C792        C  0.50271105  0.97102725  0.51248349     0.04000
N793        N  0.49761886  0.94068485  0.52923394     0.66500
H794        H  0.46145720  0.99129793  0.54484424     0.15400
H795        H  0.05455508  0.51163418  0.45249724     0.15100
N796        N  0.01853627  0.56233063  0.46737696     0.74200
O797        O  0.52319455  0.92672004  0.54451888    -0.39300
O798        O  0.46696307  0.93089268  0.53547902    -0.39200
O799        O  0.04934668  0.57102151  0.45981212    -0.39900
O800        O  0.99313243  0.57681732  0.45247334    -0.40000
C801        C  0.28702158  0.61445853  0.49673182    -0.12200
C802        C  0.29517169  0.62865689  0.46191350     0.04800
C803        C  0.32973839  0.63823747  0.45503627    -0.07500
C804        C  0.35548864  0.63327183  0.48259058    -0.08300
C805        C  0.34730939  0.61916522  0.51742507    -0.02800
C806        C  0.31268818  0.60990884  0.52450263     0.04000
N807        N  0.30347454  0.59500112  0.55914446     0.66500
H808        H  0.26029162  0.60751354  0.50283360     0.15400
H809        H  0.38220925  0.64032596  0.47660804     0.15100
N810        N  0.33943111  0.65137122  0.41953555     0.74200
O811        O  0.29106071  0.61111183  0.58573108    -0.39300
O812        O  0.30332607  0.56543855  0.56137193    -0.39200
O813        O  0.34901429  0.67965903  0.41755722    -0.39900
O814        O  0.34475607  0.63334123  0.39201335    -0.40000
C815        C  0.10447459  0.61724153  0.51088539    -0.12200
C816        C  0.09439247  0.63189867  0.47678834     0.04800
C817        C  0.05911403  0.64124529  0.47204487    -0.07500
C818        C  0.03593336  0.63796708  0.50247536    -0.08300
C819        C  0.04618981  0.62351833  0.53649001    -0.02800
C820        C  0.08058473  0.61232266  0.54016103     0.04000
N821        N  0.09180369  0.59651774  0.57362685     0.66500
H822        H  0.13133610  0.60951392  0.51484640     0.15400
H823        H  0.00881963  0.64495191  0.49863575     0.15100
N824        N  0.04584275  0.65299259  0.43682585     0.74200
O825        O  0.09439137  0.56698644  0.57386922    -0.39300
O826        O  0.10403571  0.61213986  0.60077153    -0.39200
O827        O  0.05378849  0.63938206  0.40650933    -0.39900
O828        O  0.02057039  0.67218487  0.43664109    -0.40000
C829        C  0.28971936  0.64799927  0.24494893    -0.12200
C830        C  0.27070141  0.65570625  0.21243540     0.04800
C831        C  0.23380187  0.66045110  0.21607042    -0.07500
C832        C  0.21738697  0.65768255  0.25126674    -0.08300
C833        C  0.23663085  0.65114499  0.28391432    -0.02800
C834        C  0.27327683  0.64570559  0.28024384     0.04000
N835        N  0.29454760  0.63840845  0.31224326     0.66500
H836        H  0.31779736  0.64398762  0.24315676     0.15400
H837        H  0.18946294  0.66245255  0.25324437     0.15100
N838        N  0.21252189  0.66973486  0.18475454     0.74200
O839        O  0.29555641  0.61066230  0.32473222    -0.39300
O840        O  0.31613755  0.65843455  0.32430322    -0.39200
O841        O  0.18991147  0.65098077  0.17194977    -0.39900
O842        O  0.21145937  0.69824970  0.17506196    -0.40000
C843        C  0.21951025  0.85352682  0.74906416    -0.12200
C844        C  0.23904035  0.85556360  0.78233999     0.04800
C845        C  0.27617430  0.85788780  0.77920598    -0.07500
C846        C  0.29259540  0.85669540  0.74372043    -0.08300
C847        C  0.27305957  0.85338817  0.71046791    -0.02800
C848        C  0.23579888  0.85233606  0.71369316     0.04000
N849        N  0.21367719  0.84945420  0.68138212     0.66500
H850        H  0.19114985  0.85178307  0.75039433     0.15400
H851        H  0.32098204  0.85792074  0.74235113     0.15100
N852        N  0.29785444  0.86133544  0.81178904     0.74200
O853        O  0.20400626  0.82259124  0.67068408    -0.39300
O854        O  0.19852782  0.87351350  0.66841460    -0.39200
O855        O  0.31485497  0.83806089  0.82422246    -0.39900
O856        O  0.30438363  0.88841990  0.82423614    -0.40000
C857        C  0.24316253  0.72386731  0.99278894    -0.12200
C858        C  0.27573062  0.73096576  0.00896009     0.04800
C859        C  0.28522849  0.76284415  0.01365139    -0.07500
C860        C  0.26211971  0.78672719  0.00271278    -0.08300
C861        C  0.22965267  0.77963728  0.98638069    -0.02800
C862        C  0.22002589  0.74779540  0.98186869     0.04000
N863        N  0.18648769  0.73946719  0.96681855     0.66500
H864        H  0.23463911  0.69962192  0.99072951     0.15400
H865        H  0.27065547  0.81096815  0.00481642     0.15100
N866        N  0.31861377  0.77131229  0.02896110     0.74200
O867        O  0.18459629  0.72310233  0.93732312    -0.39300
O868        O  0.15925547  0.74408084  0.98613824    -0.39200
O869        O  0.34571261  0.76871032  0.00891082    -0.39900
O870        O  0.32019071  0.78638236  0.05946227    -0.40000
C871        C  0.46952832  0.90038936  0.24280560    -0.12200
C872        C  0.48920960  0.90108936  0.20965690     0.04800
C873        C  0.02636820  0.89875982  0.21271391    -0.07500
C874        C  0.04276660  0.89908106  0.24822108    -0.08300
C875        C  0.02307334  0.90023608  0.28143357    -0.02800
C876        C  0.48577895  0.89949156  0.27821876     0.04000
N877        N  0.46374214  0.89813468  0.31067977     0.66500
H878        H  0.44109939  0.90122664  0.24141878     0.15400
H879        H  0.07119823  0.89865893  0.24969793     0.15100
N880        N  0.04793087  0.89576021  0.18002397     0.74200
O881        O  0.44833900  0.92262048  0.32185706    -0.39300
O882        O  0.45523350  0.87181700  0.32421174    -0.39200
O883        O  0.06948615  0.91711652  0.17175243    -0.39900
O884        O  0.04893083  0.86999411  0.16259885    -0.40000
C885        C  0.09337496  0.90083897  0.99172466    -0.12200
C886        C  0.08974759  0.87408288  0.96897139     0.04800
C887        C  0.06352869  0.85217337  0.97765964    -0.07500
C888        C  0.04115672  0.85750992  0.00827382    -0.08300
C889        C  0.04397720  0.88471419  0.03071233    -0.02800
C890        C  0.07097070  0.90631389  0.02238930     0.04000
N891        N  0.07664807  0.93340906  0.04528448     0.66500
H892        H  0.11475810  0.91704739  0.98650792     0.15400
H893        H  0.02051308  0.84059429  0.01353938     0.15100
N894        N  0.05941437  0.82429191  0.95578797     0.74200
O895        O  0.08737599  0.93013003  0.07872056    -0.39300
O896        O  0.07545844  0.96046226  0.03076825    -0.39200
O897        O  0.05836290  0.79788843  0.97193317    -0.39900
O898        O  0.05186070  0.82636609  0.92124421    -0.40000
C899        C  0.35111310  0.87125515  0.98674991    -0.12200
C900        C  0.34180437  0.88417796  0.02191624     0.04800
C901        C  0.30621671  0.89100844  0.02897689    -0.07500
C902        C  0.28168030  0.88729617  0.99972698    -0.08300
C903        C  0.29130255  0.87515922  0.96437391    -0.02800
C904        C  0.32620137  0.86619606  0.95841379     0.04000
N905        N  0.33698469  0.85315631  0.92328446     0.66500
H906        H  0.37828145  0.86534860  0.98099882     0.15400
H907        H  0.25432798  0.89262980  0.00523206     0.15100
N908        N  0.29436143  0.90160209  0.06510330     0.74200
O909        O  0.34415525  0.87116517  0.89612882    -0.39300
O910        O  0.34470895  0.82440016  0.92127219    -0.39200
O911        O  0.26996392  0.92159877  0.06700738    -0.39900
O912        O  0.30259983  0.88641941  0.09438423    -0.40000
C913        C  0.40527995  0.52368644  0.13309127    -0.12200
C914        C  0.38710195  0.49637063  0.12289174     0.04800
C915        C  0.35397188  0.49981555  0.10476219    -0.07500
C916        C  0.34015587  0.52976373  0.09712314    -0.08300
C917        C  0.35827114  0.55677284  0.10778195    -0.02800
C918        C  0.39118398  0.55357506  0.12582465     0.04000
N919        N  0.41159342  0.58060114  0.13502247     0.66500
H920        H  0.43094300  0.52194911  0.14602997     0.15400
H921        H  0.31492507  0.53188224  0.08328507     0.15100
N922        N  0.33408376  0.97326017  0.09347681     0.74200
O923        O  0.41302464  0.58991756  0.16867950    -0.39300
O924        O  0.43329925  0.59107178  0.11139183    -0.39200
O925        O  0.31520415  0.95892183  0.11700933    -0.39900
O926        O  0.33349313  0.96541588  0.05924327    -0.40000
C927        C  0.37973651  0.80253151  0.13716247    -0.12200
C928        C  0.40465834  0.80546814  0.10806751     0.04800
C929        C  0.41231006  0.77915830  0.08578284    -0.07500
C930        C  0.39542587  0.75061569  0.09315577    -0.08300
C931        C  0.37058703  0.74764214  0.12229228    -0.02800
C932        C  0.36249108  0.77408946  0.14415419     0.04000
N933        N  0.33721544  0.77237906  0.17368800     0.66500
H934        H  0.37289066  0.82281055  0.15420142     0.15400
H935        H  0.40157527  0.73049458  0.07550731     0.15100
N936        N  0.43765248  0.78088058  0.05625982     0.74200
O937        O  0.34665189  0.76403189  0.20629682    -0.39300
O938        O  0.30691470  0.78357073  0.16862344    -0.39200
O939        O  0.46957447  0.78512949  0.06411822    -0.39900
O940        O  0.42872448  0.77516888  0.02272861    -0.40000
C941        C  0.48505099  0.60429565  0.78248122    -0.12200
C942        C  0.02210869  0.60665895  0.78412450     0.04800
C943        C  0.04053019  0.60977420  0.75003835    -0.07500
C944        C  0.02229707  0.60887773  0.71565255    -0.08300
C945        C  0.48545875  0.60479601  0.71400216    -0.02800
C946        C  0.46685434  0.60316302  0.74810044     0.04000
N947        N  0.42975532  0.59863790  0.74850777     0.66500
H948        H  0.46987484  0.60204679  0.80809731     0.15400
H949        H  0.03742789  0.61072452  0.68995286     0.15100
N950        N  0.07777203  0.61319275  0.74962604     0.74200
O951        O  0.41739356  0.57120055  0.74726646    -0.39300
O952        O  0.40974312  0.62146201  0.75561333    -0.39200
O953        O  0.09691360  0.58995020  0.74175220    -0.39900
O954        O  0.09114323  0.64020701  0.75168394    -0.40000
C955        C  0.02565393  0.50109846  0.96975674    -0.12200
C956        C  0.02439667  0.53130011  0.98629800     0.04800
C957        C  0.00035679  0.53670361  0.01542290    -0.07500
C958        C  0.47740201  0.51274120  0.02618082    -0.08300
C959        C  0.47855221  0.98252465  0.00926206    -0.02800
C960        C  0.00168966  0.97734735  0.97933460     0.04000
N961        N  0.00132450  0.94851521  0.95861945     0.66500
H962        H  0.04347571  0.49634233  0.94668654     0.15400
H963        H  0.45966138  0.51741561  0.04935718     0.15100
N964        N  0.49927658  0.56608024  0.03496528     0.74200
O965        O  0.97324424  0.93944658  0.94325332    -0.39300
O966        O  0.02976775  0.93510562  0.95026081    -0.39200
O967        O  0.47062503  0.58056016  0.03856348    -0.39900
O968        O  0.02596212  0.57449772  0.05392185    -0.40000
C969        C  0.13308828  0.70792137  0.86023331    -0.12200
C970        C  0.10580056  0.70553058  0.88676856     0.04800
C971        C  0.09440120  0.73275733  0.90525034    -0.07500
C972        C  0.10991502  0.76166432  0.89657037    -0.08300
C973        C  0.13763346  0.76409185  0.87052453    -0.02800
C974        C  0.14935844  0.73668947  0.85243574     0.04000
N975        N  0.17767662  0.73764182  0.82623790     0.66500
H976        H  0.14255634  0.68696745  0.84597672     0.15400
H977        H  0.10099828  0.78245783  0.91165178     0.15100
N978        N  0.06690341  0.73145866  0.93243236     0.74200
O979        O  0.20799296  0.72940136  0.83662790    -0.39300
O980        O  0.17147450  0.74219414  0.79173413    -0.39200
O981        O  0.07388235  0.72446262  0.96618564    -0.39900
O982        O  0.03670186  0.74136656  0.92393349    -0.40000
C983        C  0.15457900  0.97776524  0.91433080    -0.12200
C984        C  0.15211254  0.95497613  0.88611492     0.04800
C985        C  0.13221473  0.96208192  0.85323606    -0.07500
C986        C  0.11595106  0.99148990  0.84915565    -0.08300
C987        C  0.11902779  0.51415143  0.87745359    -0.02800
C988        C  0.13841743  0.00713894  0.91015531     0.04000
N989        N  0.14002936  0.02870847  0.94086356     0.66500
H990        H  0.16871440  0.97259789  0.94023796     0.15400
H991        H  0.10195075  0.49666693  0.82360527     0.15100
N992        N  0.12657781  0.93914538  0.82458140     0.74200
O993        O  0.11817041  0.02623078  0.96729602    -0.39300
O994        O  0.16528929  0.54465424  0.94733626    -0.39200
O995        O  0.09911124  0.92268274  0.82509884    -0.39900
O996        O  0.14606008  0.93874487  0.79592934    -0.40000
C997        C  0.15564338  0.63709983  0.01271693    -0.12200
C998        C  0.16465064  0.62473694  0.97720348     0.04800
C999        C  0.19998452  0.61764503  0.96969963    -0.07500
C1000       C  0.22506330  0.62173341  0.99823194    -0.08300
C1001       C  0.21596647  0.63423113  0.03359743    -0.02800
C1002       C  0.18097520  0.64240841  0.04051510     0.04000
N1003       N  0.17053439  0.65485828  0.07606384     0.66500
H1004       H  0.12854168  0.64284336  0.01895249     0.15400
H1005       H  0.25227378  0.61633057  0.99211441     0.15100
N1006       N  0.21084213  0.60607863  0.93374197     0.74200
O1007       O  0.16938805  0.68420084  0.08064956    -0.39300
O1008       O  0.15596855  0.63707860  0.09977381    -0.39200
O1009       O  0.20814423  0.62350234  0.90508006    -0.39900
O1010       O  0.22944331  0.58160195  0.93191740    -0.40000
C1011       C  0.46982263  0.65337207  0.98953899    -0.12200
C1012       C  0.46382838  0.63019829  0.96184491     0.04800
C1013       C  0.43324239  0.61183573  0.96439942    -0.07500
C1014       C  0.40990413  0.61652605  0.99427817    -0.08300
C1015       C  0.41652274  0.63901862  0.02232552    -0.02800
C1016       C  0.44674848  0.65761946  0.01983682     0.04000
N1017       N  0.45422483  0.68099237  0.04757136     0.66500
H1018       H  0.49346747  0.66739039  0.98879429     0.15400
H1019       H  0.38595983  0.60289079  0.99521362     0.15100
N1020       N  0.42514242  0.58877395  0.93656855     0.74200
O1021       O  0.45905656  0.67297234  0.08143226    -0.39300
O1022       O  0.46098801  0.70874733  0.03748490    -0.39200
O1023       O  0.42558531  0.56001924  0.94518105    -0.39900
O1024       O  0.41320833  0.59726465  0.90495761    -0.40000
O1025       O  0.57109688  0.04906446  0.86211025    -0.85300
O1026       O  0.55426807  0.05050179  0.93423529    -0.82400
C1027       C  0.54245588  0.05712737  0.96579260     0.98100
O1028       O  0.54108155  0.08597163  0.97539662    -0.82400
O1029       O  0.60841428  0.10735436  0.96499439    -0.85100
C1030       C  0.63613411  0.11757696  0.95068922     1.02700
O1031       O  0.63719477  0.12414905  0.91565022    -0.77800
O1032       O  0.62052380  0.06948478  0.88016101    -0.78000
C1033       C  0.60286375  0.04566556  0.87209086     1.02600
O1034       O  0.52043081  0.09946907  0.84979730    -0.85300
O1035       O  0.99680640  0.09441680  0.92289907    -0.82400
C1036       C  0.99308355  0.12206872  0.93588033     0.98200
O1037       O  0.51819210  0.14109318  0.93307206    -0.82400
O1038       O  0.58558198  0.16457962  0.92839587    -0.85000
C1039       C  0.59087268  0.17430105  0.89481481     1.02600
O1040       O  0.58773618  0.15589111  0.86742280    -0.77800
O1041       O  0.57328042  0.10308874  0.82597956    -0.78000
C1042       C  0.53983880  0.10374453  0.82176800     1.02600
Cr1043     Cr  0.53723701  0.07535763  0.89262735     1.93700
Cr1044     Cr  0.56362839  0.12373734  0.94775299     1.93200
Cr1045     Cr  0.60251988  0.11239555  0.87375478     1.39100
O1046       O  0.56752946  0.10452160  0.90433890    -1.23100
O1047       O  0.88760815  0.44057210  0.11961461    -0.85300
O1048       O  0.87163837  0.38583710  0.08288267    -0.82400
C1049       C  0.87137838  0.39257166  0.04787128     0.98100
O1050       O  0.89818943  0.40399814  0.03285260    -0.82400
O1051       O  0.96435165  0.42739925  0.02075004    -0.85100
C1052       C  0.96222049  0.45615480  0.03050825     1.02700
O1053       O  0.95147576  0.46241598  0.06264763    -0.77800
O1054       O  0.93682785  0.46228937  0.13547270    -0.78000
C1055       C  0.90455352  0.46498225  0.12708156     1.02600
O1056       O  0.93748883  0.40714105  0.17040453    -0.85300
O1057       O  0.92390012  0.35496117  0.12855555    -0.82400
C1058       C  0.91996682  0.33687528  0.10102613     0.98200
O1059       O  0.92405753  0.34712242  0.06749558    -0.82400
O1060       O  0.99064994  0.37265907  0.06116944    -0.85000
C1061       C  0.51505444  0.39230322  0.05781976     1.02600
O1062       O  0.51071481  0.41978175  0.07116798    -0.77800
O1063       O  0.98959714  0.41323873  0.14538502    -0.78000
C1064       C  0.97099495  0.40670578  0.17345585     1.02600
Cr1065     Cr  0.90722762  0.39803474  0.12378867     1.93700
Cr1066     Cr  0.94410993  0.38879328  0.04833215     1.93200
Cr1067     Cr  0.97059745  0.43737515  0.10331505     1.39100
O1068       O  0.94089485  0.40747298  0.09214282    -1.23100
O1069       O  0.63766809  0.31949077  0.87369077    -0.85300
O1070       O  0.62060846  0.37371543  0.91019401    -0.82400
C1071       C  0.62004309  0.36644691  0.94506916     0.98100
O1072       O  0.64684807  0.35544026  0.96073349    -0.82400
O1073       O  0.71363370  0.33340925  0.97396264    -0.85100
C1074       C  0.71271110  0.30455118  0.96466241     1.02700
O1075       O  0.70315006  0.29722946  0.93224254    -0.77800
O1076       O  0.68735716  0.29774117  0.85886832    -0.78000
C1077       C  0.65505708  0.29520216  0.86670527     1.02600
O1078       O  0.68735706  0.35278912  0.82317462    -0.85300
O1079       O  0.67280599  0.40547115  0.86556386    -0.82400
C1080       C  0.66763111  0.42321850  0.89320829     0.98200
O1081       O  0.67183270  0.41265226  0.92662129    -0.82400
O1082       O  0.73914704  0.38792598  0.93430534    -0.85000
C1083       C  0.76381664  0.36847235  0.93695157     1.02600
O1084       O  0.76036714  0.34121155  0.92288812    -0.77800
O1085       O  0.73935190  0.34705485  0.84872350    -0.78000
C1086       C  0.72087293  0.35237454  0.82010048     1.02600
Cr1087     Cr  0.65682155  0.36201543  0.86975675     1.93700
Cr1088     Cr  0.69269469  0.37131071  0.94597860     1.93200
Cr1089     Cr  0.72077321  0.32292882  0.89104209     1.39100
O1090       O  0.69036982  0.35258414  0.90200005    -1.23100
O1091       O  0.82160914  0.21411698  0.13591618    -0.85300
O1092       O  0.80510703  0.21373891  0.06276894    -0.82400
C1093       C  0.79460993  0.20632505  0.03074845     0.98100
O1094       O  0.79347908  0.17740540  0.02170626    -0.82400
O1095       O  0.86063105  0.15650909  0.03352500    -0.85100
C1096       C  0.88808796  0.14635014  0.04860213     1.02700
O1097       O  0.88861667  0.13927112  0.08352800    -0.77800
O1098       O  0.87124675  0.19259690  0.12058100    -0.78000
C1099       C  0.85382285  0.21674120  0.12778372     1.02600
O1100       O  0.77069297  0.16412065  0.14677224    -0.85300
O1101       O  0.74838430  0.16917988  0.07347559    -0.82400
C1102       C  0.74498348  0.14166341  0.06008838     0.98200
O1103       O  0.76995153  0.12252693  0.06249004    -0.82400
O1104       O  0.83776462  0.09873079  0.06824200    -0.85000
C1105       C  0.84301799  0.08831741  0.10152541     1.02600
O1106       O  0.83893041  0.10595731  0.12951443    -0.77800
O1107       O  0.82280521  0.15853782  0.17207840    -0.78000
C1108       C  0.78927006  0.15913805  0.17532050     1.02600
Cr1109     Cr  0.78825425  0.18820643  0.10436998     1.93700
Cr1110     Cr  0.81570296  0.13981991  0.04942827     1.93200
Cr1111     Cr  0.85306687  0.14990972  0.12488810     1.39100
O1112       O  0.81873857  0.15870252  0.09326472    -1.23100
O1113       O  0.93861803  0.04456412  0.63564321    -0.85300
O1114       O  0.95843758  0.04547848  0.56374183    -0.82400
C1115       C  0.96996710  0.05282627  0.53209967     0.98100
O1116       O  0.97204643  0.08183864  0.52334422    -0.82400
O1117       O  0.90519053  0.10434416  0.53012770    -0.85100
C1118       C  0.87673189  0.11337956  0.54390178     1.02700
O1119       O  0.87438947  0.11957826  0.57894480    -0.77800
O1120       O  0.88986135  0.06544980  0.61601393    -0.78000
C1121       C  0.90707398  0.04146544  0.62486509     1.02600
O1122       O  0.98897407  0.09464749  0.64935866    -0.85300
O1123       O  0.51498039  0.08907426  0.57736007    -0.82400
C1124       C  0.51895773  0.11674323  0.56458175     0.98200
O1125       O  0.49427684  0.13600642  0.56751740    -0.82400
O1126       O  0.92689711  0.16061846  0.56804076    -0.85000
C1127       C  0.92014781  0.17044057  0.60115839     1.02600
O1128       O  0.92210772  0.15192230  0.62869906    -0.77800
O1129       O  0.93540273  0.09929048  0.67109674    -0.78000
C1130       C  0.96868227  0.09995404  0.67637662     1.02600
Cr1131     Cr  0.97353479  0.07051663  0.60611427     1.93700
Cr1132     Cr  0.94932288  0.11966896  0.55003457     1.93200
Cr1133     Cr  0.90770302  0.10827679  0.62226673     1.39100
O1134       O  0.94355362  0.09995010  0.59300631    -1.23100
O1135       O  0.62166587  0.43826614  0.37591899    -0.85300
O1136       O  0.63888936  0.38414405  0.41239545    -0.82400
C1137       C  0.63763191  0.39049289  0.44746711     0.98100
O1138       O  0.60988366  0.40050520  0.46178493    -0.82400
O1139       O  0.54314477  0.42143286  0.47286114    -0.85100
C1140       C  0.54486421  0.45040695  0.46407990     1.02700
O1141       O  0.55538743  0.45775260  0.43205855    -0.77800
O1142       O  0.57206649  0.45929217  0.35941490    -0.78000
C1143       C  0.60411483  0.46233455  0.36832759     1.02600
O1144       O  0.57405143  0.40461762  0.32304126    -0.85300
O1145       O  0.58945286  0.35199654  0.36464667    -0.82400
C1146       C  0.59301868  0.33380161  0.39223348     0.98200
O1147       O  0.58734465  0.34341928  0.42566964    -0.82400
O1148       O  0.51963117  0.36697983  0.43086782    -0.85000
C1149       C  0.99481220  0.38614884  0.43377802     1.02600
O1150       O  0.99843564  0.41380210  0.42066635    -0.77800
O1151       O  0.52153152  0.40924350  0.34741881    -0.78000
C1152       C  0.54056340  0.40420189  0.31933740     1.02600
Cr1153     Cr  0.60375041  0.39554517  0.37054202     1.93700
Cr1154     Cr  0.56526705  0.38407861  0.44492736     1.93200
Cr1155     Cr  0.53853346  0.43299189  0.39022018     1.39100
O1156       O  0.56892460  0.40356302  0.40150941    -1.23100
O1157       O  0.87276068  0.31629065  0.61752384    -0.85300
O1158       O  0.88862624  0.36976656  0.57959477    -0.82400
C1159       C  0.88774059  0.36237626  0.54475864     0.98100
O1160       O  0.86019019  0.35187730  0.53031993    -0.82400
O1161       O  0.79290732  0.33052865  0.51973830    -0.85100
C1162       C  0.79444450  0.30164157  0.52920148     1.02700
O1163       O  0.80548223  0.29446511  0.56114919    -0.77800
O1164       O  0.82346107  0.29453188  0.63382696    -0.78000
C1165       C  0.85570548  0.29210179  0.62546451     1.01000
O1166       O  0.82441461  0.34993900  0.66963319    -0.85300
O1167       O  0.83796553  0.40227820  0.62603108    -0.82400
C1168       C  0.84208976  0.42014806  0.59817173     0.98200
O1169       O  0.83737297  0.40959024  0.56491832    -0.82400
O1170       O  0.76993016  0.38562817  0.56075979    -0.85000
C1171       C  0.74510474  0.36649365  0.55839215     1.02600
O1172       O  0.74864776  0.33900719  0.57213015    -0.77800
O1173       O  0.77204631  0.34431793  0.64521880    -0.78000
C1174       C  0.79093664  0.34957030  0.67343386     1.02600
Cr1175     Cr  0.85370428  0.35877942  0.62167951     1.93700
Cr1176     Cr  0.81537690  0.36837309  0.54677466     1.93200
Cr1177     Cr  0.78913756  0.32011534  0.60270255     1.39100
O1178       O  0.81923584  0.34953384  0.59065832    -1.23100
O1179       O  0.68754710  0.20875637  0.36189545    -0.85300
O1180       O  0.70570026  0.20815758  0.43455338    -0.82400
C1181       C  0.71595864  0.20049074  0.46666404     0.98100
O1182       O  0.71787329  0.17151807  0.47550112    -0.82400
O1183       O  0.65091160  0.15025651  0.46456364    -0.85100
C1184       C  0.62336265  0.13958896  0.45027716     1.02700
O1185       O  0.62261867  0.13252147  0.41536972    -0.77800
O1186       O  0.63835690  0.18687423  0.37797370    -0.78000
C1187       C  0.65524123  0.21119434  0.37005758     1.02600
O1188       O  0.73897945  0.15906134  0.34958391    -0.85300
O1189       O  0.76253801  0.16384527  0.42273696    -0.82400
C1190       C  0.76639266  0.13620265  0.43587898     0.98200
O1191       O  0.74152052  0.11706541  0.43390797    -0.82400
O1192       O  0.67434127  0.09293791  0.42917551    -0.85000
C1193       C  0.66952791  0.08293848  0.39573822     1.02600
O1194       O  0.67315627  0.10110345  0.36812565    -0.77800
O1195       O  0.68623613  0.15391733  0.32573348    -0.78000
C1196       C  0.71963735  0.15399140  0.32163630     1.02600
Cr1197     Cr  0.72194885  0.18288282  0.39259125     1.93700
Cr1198     Cr  0.69588034  0.13401130  0.44793220     1.93200
Cr1199     Cr  0.65731831  0.14439579  0.37339318     1.39100
O1200       O  0.69192311  0.15331202  0.40435734    -1.23100
C1201       C  0.74231720  0.28183420  0.49537571    -0.12200
C1202       C  0.77657849  0.27639711  0.50825645     0.04800
C1203       C  0.78860783  0.24506378  0.51168208    -0.07500
C1204       C  0.76655243  0.22006936  0.50233839    -0.08300
C1205       C  0.73255362  0.22548950  0.48897270    -0.02800
C1206       C  0.72000687  0.25675557  0.48626716     0.04000
N1207       N  0.68451012  0.26314623  0.47487783     0.66500
H1208       H  0.73198898  0.30566649  0.49485174     0.15400
H1209       H  0.77703468  0.19628749  0.50304487     0.15100
N1210       N  0.82351801  0.23834636  0.52413475     0.74200
O1211       O  0.67747237  0.28698947  0.45503547    -0.39300
O1212       O  0.65977016  0.24621238  0.48684303    -0.39200
O1213       O  0.82843671  0.22109531  0.55262242    -0.39900
O1214       O  0.84915827  0.24567632  0.50355953    -0.40000
C1215       C  0.97415377  0.36033087  0.49247258    -0.12200
C1216       C  0.96612506  0.37875463  0.46042852     0.04800
C1217       C  0.93290336  0.39297393  0.45793122    -0.07500
C1218       C  0.90824092  0.38786157  0.48643454    -0.08300
C1219       C  0.91641908  0.36965361  0.51843717    -0.02800
C1220       C  0.94984368  0.35619473  0.52162878     0.04000
N1221       N  0.95940233  0.33826612  0.55411343     0.66500
H1222       H  0.00000532  0.35009163  0.49572651     0.15400
H1223       H  0.88239047  0.39822034  0.48357794     0.15100
N1224       N  0.92366538  0.41231676  0.42650478     0.74200
O1225       O  0.96051590  0.30872005  0.55220999    -0.39300
O1226       O  0.97245505  0.35196188  0.58230632    -0.39200
O1227       O  0.90947679  0.40014560  0.39793782    -0.39900
O1228       O  0.92422034  0.44179542  0.42981026    -0.40000
C1229       C  0.65714430  0.36894164  0.50861225    -0.12200
C1230       C  0.66627423  0.38302006  0.47401279     0.04800
C1231       C  0.70119048  0.39176634  0.46777792    -0.07500
C1232       C  0.72603195  0.38730719  0.49646446    -0.08300
C1233       C  0.71678650  0.37349071  0.53122442    -0.02800
C1234       C  0.68207727  0.36388572  0.53694402     0.04000
N1235       N  0.67138973  0.35052657  0.57199167     0.66500
H1236       H  0.63021961  0.36212558  0.51388626     0.15400
H1237       H  0.75297125  0.39404184  0.49116375     0.15100
N1238       N  0.71155105  0.40605487  0.43313696     0.74200
O1239       O  0.66196438  0.36839568  0.59836939    -0.39300
O1240       O  0.66488060  0.32154875  0.57405539    -0.39200
O1241       O  0.71559269  0.43540921  0.43147267    -0.39900
O1242       O  0.72255845  0.38910577  0.40658927    -0.40000
C1243       C  0.65070192  0.99543014  0.39748387    -0.12200
C1244       C  0.62158038  0.99344603  0.37292593     0.04800
C1245       C  0.60869723  0.02121494  0.35632122    -0.07500
C1246       C  0.62535426  0.04985076  0.36369996    -0.08300
C1247       C  0.65419761  0.05171831  0.38842749    -0.02800
C1248       C  0.66665797  0.02422439  0.40569548     0.04000
N1249       N  0.69585606  0.02508321  0.43094133     0.66500
H1250       H  0.66126650  0.47444656  0.41039300     0.15400
H1251       H  0.61507792  0.07104091  0.35060436     0.15100
N1252       N  0.57878927  0.02082099  0.33204970     0.74200
O1253       O  0.69068737  0.02693785  0.46594434    -0.39300
O1254       O  0.72625072  0.01931617  0.41883410    -0.39200
O1255       O  0.54898353  0.02763560  0.34504267    -0.39900
O1256       O  0.58292075  0.01859879  0.29691993    -0.40000
C1257       C  0.59164808  0.27585129  0.39956495    -0.12200
C1258       C  0.60803854  0.30246821  0.38522064     0.04800
C1259       C  0.63913888  0.29902627  0.36399573    -0.07500
C1260       C  0.65381973  0.26920530  0.35848625    -0.08300
C1261       C  0.63749657  0.24229700  0.37286857    -0.02800
C1262       C  0.60557823  0.24597131  0.39297313     0.04000
N1263       N  0.58673450  0.21961110  0.40702493     0.66500
H1264       H  0.56756722  0.27819440  0.41545592     0.15400
H1265       H  0.67829398  0.26720518  0.34326467     0.15100
N1266       N  0.65714770  0.32582639  0.34951227     0.74200
O1267       O  0.58916857  0.21233049  0.44139838    -0.39300
O1268       O  0.56285844  0.20771895  0.38701471    -0.39200
O1269       O  0.68206999  0.33756572  0.36813269    -0.39900
O1270       O  0.65261400  0.33392613  0.31564072    -0.40000
C1271       C  0.86943398  0.00607748  0.58680136    -0.12200
C1272       C  0.89063673  0.01032112  0.61896091     0.04800
C1273       C  0.89565404  0.48476540  0.64410198    -0.07500
C1274       C  0.87841012  0.45624658  0.63730744    -0.08300
C1275       C  0.85710677  0.45187116  0.60513564    -0.02800
C1276       C  0.85305465  0.47706752  0.57974374     0.04000
N1277       N  0.83279374  0.47375496  0.54610462     0.66500
H1278       H  0.86596031  0.02522633  0.56691529     0.15400
H1279       H  0.88276772  0.43699137  0.65682300     0.15100
N1280       N  0.91800762  0.48757345  0.67626073     0.74200
O1281       O  0.80119076  0.98135964  0.54519061    -0.39300
O1282       O  0.84796292  0.46788362  0.51537653    -0.39200
O1283       O  0.90479887  0.48982862  0.70867529    -0.39900
O1284       O  0.95050726  0.48281501  0.67289503    -0.40000
C1285       C  0.88278539  0.20677431  0.63873304    -0.12200
C1286       C  0.90570286  0.20239538  0.60798039     0.04800
C1287       C  0.91221696  0.22796755  0.58381832    -0.07500
C1288       C  0.89641649  0.25708641  0.59097134    -0.08300
C1289       C  0.87338602  0.26130732  0.62152209    -0.02800
C1290       C  0.86658202  0.23581942  0.64557374     0.04000
N1291       N  0.84384610  0.23920158  0.67732556     0.66500
H1292       H  0.87700670  0.18736698  0.65747877     0.15400
H1293       H  0.90128986  0.27632888  0.57169211     0.15100
N1294       N  0.93465504  0.22478801  0.55189512     0.74200
O1295       O  0.81806084  0.22100296  0.68141532    -0.39300
O1296       O  0.85014669  0.25971548  0.70201143    -0.39200
O1297       O  0.92163269  0.21939687  0.51986163    -0.39900
O1298       O  0.96676990  0.23141121  0.55478418    -0.40000
C1299       C  0.98128493  0.99606830  0.52359937    -0.12200
C1300       C  0.98642092  0.02705067  0.51027610     0.04800
C1301       C  0.51284793  0.03241558  0.48349863    -0.07500
C1302       C  0.53425466  0.00740894  0.47237024    -0.08300
C1303       C  0.52892887  0.47609216  0.48636153    -0.02800
C1304       C  0.00214685  0.47066624  0.51281266     0.04000
N1305       N  0.99668352  0.44030184  0.52938319     0.66500
H1306       H  0.96052261  0.49104349  0.54457814     0.15400
H1307       H  0.55409323  0.01203317  0.45118861     0.15100
N1308       N  0.51812485  0.06266023  0.46656094     0.74200
O1309       O  0.02205784  0.42606487  0.54469430    -0.39300
O1310       O  0.96590438  0.43078360  0.53554226    -0.39200
O1311       O  0.54879112  0.07145529  0.45851177    -0.39900
O1312       O  0.49245771  0.07705105  0.45205086    -0.40000
C1313       C  0.78755900  0.11452574  0.49649295    -0.12200
C1314       C  0.79565627  0.12874532  0.46167746     0.04800
C1315       C  0.83018806  0.13842361  0.45478538    -0.07500
C1316       C  0.85596153  0.13352662  0.48232988    -0.08300
C1317       C  0.84782566  0.11941075  0.51716920    -0.02800
C1318       C  0.81323981  0.11005950  0.52425711     0.04000
N1319       N  0.80407726  0.09514948  0.55891344     0.66500
H1320       H  0.76085314  0.10751353  0.50260614     0.15400
H1321       H  0.88265649  0.14065645  0.47634644     0.15100
N1322       N  0.83981791  0.15162035  0.41929704     0.74200
O1323       O  0.79163749  0.11124663  0.58549799    -0.39300
O1324       O  0.80404732  0.06558849  0.56117853    -0.39200
O1325       O  0.84907383  0.17999582  0.41731715    -0.39900
O1326       O  0.84542796  0.13362199  0.39181015    -0.40000
C1327       C  0.60494571  0.11719292  0.51113685    -0.12200
C1328       C  0.59485013  0.13178278  0.47699986     0.04800
C1329       C  0.55957526  0.14115908  0.47227844    -0.07500
C1330       C  0.53641818  0.13795415  0.50274663    -0.08300
C1331       C  0.54669409  0.12358243  0.53680038    -0.02800
C1332       C  0.58108737  0.11238463  0.54047287     0.04000
N1333       N  0.59235356  0.09673640  0.57402678     0.66500
H1334       H  0.63180628  0.10946508  0.51510196     0.15400
H1335       H  0.50930434  0.14494169  0.49891702     0.15100
N1336       N  0.54627433  0.15285313  0.43704420     0.74200
O1337       O  0.59526948  0.06722986  0.57436091    -0.39300
O1338       O  0.60428665  0.11251622  0.60119315    -0.39200
O1339       O  0.55423487  0.13922947  0.40674105    -0.39900
O1340       O  0.52097684  0.17201871  0.43683933    -0.40000
C1341       C  0.78994958  0.14813056  0.24497704    -0.12200
C1342       C  0.77086015  0.15559979  0.21243619     0.04800
C1343       C  0.73391737  0.16004653  0.21603345    -0.07500
C1344       C  0.71754023  0.15733342  0.25125543    -0.08300
C1345       C  0.73685980  0.15108347  0.28393474    -0.02800
C1346       C  0.77354458  0.14585057  0.28027867     0.04000
N1347       N  0.79489556  0.13879541  0.31229586     0.66500
H1348       H  0.81806532  0.14432625  0.24320875     0.15400
H1349       H  0.68956997  0.16188854  0.25320958     0.15100
N1350       N  0.71253356  0.16891509  0.18463162     0.74200
O1351       O  0.79632788  0.11105048  0.32474319    -0.39300
O1352       O  0.81620547  0.15906009  0.32435740    -0.39200
O1353       O  0.69044803  0.14971485  0.17172561    -0.39900
O1354       O  0.71078761  0.19740763  0.17495438    -0.40000
C1355       C  0.71940225  0.35352754  0.74951333    -0.12200
C1356       C  0.73900928  0.35544063  0.78275272     0.04800
C1357       C  0.77614886  0.35764828  0.77956043    -0.07500
C1358       C  0.79249439  0.35648680  0.74405391    -0.08300
C1359       C  0.77289028  0.35329541  0.71084099    -0.02800
C1360       C  0.73563064  0.35235649  0.71410816     0.04000
N1361       N  0.71346525  0.34958307  0.68181215     0.66500
H1362       H  0.69103750  0.35187362  0.75089992     0.15400
H1363       H  0.82088552  0.35760283  0.74264083     0.15100
N1364       N  0.79792291  0.36087808  0.81210938     0.74200
O1365       O  0.70338887  0.32278890  0.67129804    -0.39300
O1366       O  0.69877387  0.37376867  0.66856994    -0.39200
O1367       O  0.81459870  0.33742061  0.82455618    -0.39900
O1368       O  0.80484108  0.38789251  0.82453163    -0.40000
C1369       C  0.74383303  0.22402479  0.99307649    -0.12200
C1370       C  0.77647575  0.23109283  0.00908233     0.04800
C1371       C  0.78604068  0.26295527  0.01371910    -0.07500
C1372       C  0.76290124  0.28686226  0.00292737    -0.08300
C1373       C  0.73034203  0.27980324  0.98678124    -0.02800
C1374       C  0.72067412  0.24796792  0.98229323     0.04000
N1375       N  0.68706694  0.23965732  0.96741771     0.66500
H1376       H  0.73526958  0.19978679  0.99105330     0.15400
H1377       H  0.77147594  0.31109594  0.00499012     0.15100
N1378       N  0.81953298  0.27137401  0.02879291     0.74200
O1379       O  0.68503805  0.22359197  0.93769450    -0.39300
O1380       O  0.65999031  0.24383913  0.98712332    -0.39200
O1381       O  0.84652602  0.26856033  0.00862043    -0.39900
O1382       O  0.82132831  0.28657517  0.05918683    -0.40000
C1383       C  0.96925933  0.40059789  0.24347618    -0.12200
C1384       C  0.98897971  0.40110464  0.21035012     0.04800
C1385       C  0.52604882  0.39861494  0.21333654    -0.07500
C1386       C  0.54240079  0.39887172  0.24886058    -0.08300
C1387       C  0.52268132  0.40024491  0.28204082    -0.02800
C1388       C  0.98547529  0.39967255  0.27890852     0.04000
N1389       N  0.96340219  0.39857628  0.31135408     0.66500
H1390       H  0.94083933  0.40163200  0.24205338     0.15400
H1391       H  0.57082637  0.39822543  0.25037270     0.15100
N1392       N  0.54763437  0.39544711  0.18069254     0.74200
O1393       O  0.94838029  0.42324779  0.32254219    -0.39300
O1394       O  0.95445839  0.37236060  0.32484349    -0.39200
O1395       O  0.56906443  0.41683847  0.17218187    -0.39900
O1396       O  0.54879309  0.36954347  0.16357531    -0.40000
C1397       C  0.59522359  0.40034227  0.99444612    -0.12200
C1398       C  0.59062601  0.37474370  0.97001352     0.04800
C1399       C  0.56285836  0.35385792  0.97649190    -0.07500
C1400       C  0.54024633  0.35888968  0.00700141    -0.08300
C1401       C  0.54417555  0.38491651  0.03122579    -0.02800
C1402       C  0.57236958  0.40566321  0.02474000     0.04000
N1403       N  0.57870769  0.43174479  0.04906798     0.66500
H1404       H  0.61754758  0.41579487  0.99068002     0.15400
H1405       H  0.51849857  0.34281993  0.01071045     0.15100
N1406       N  0.55737758  0.32738119  0.95247853     0.74200
O1407       O  0.58932677  0.42703373  0.08230017    -0.39300
O1408       O  0.57789379  0.45933969  0.03607551    -0.39200
O1409       O  0.55243013  0.30055152  0.96662575    -0.39900
O1410       O  0.55278321  0.33146170  0.91759275    -0.40000
C1411       C  0.85178092  0.37107206  0.98688330    -0.12200
C1412       C  0.84235390  0.38382497  0.02210702     0.04800
C1413       C  0.80672018  0.39038708  0.02920135    -0.07500
C1414       C  0.78224676  0.38673733  0.99989570    -0.08300
C1415       C  0.79198471  0.37483385  0.96447104    -0.02800
C1416       C  0.82691506  0.36597591  0.95851161     0.04000
N1417       N  0.83774938  0.35293686  0.92339829     0.66500
H1418       H  0.87898494  0.36529361  0.98114017     0.15400
H1419       H  0.75485778  0.39192470  0.00539992     0.15100
N1420       N  0.79476015  0.40061524  0.06543505     0.74200
O1421       O  0.84569809  0.37095213  0.89650290    -0.39300
O1422       O  0.84475088  0.32404169  0.92122720    -0.39200
O1423       O  0.77028621  0.42052008  0.06753569    -0.39900
O1424       O  0.80289185  0.38510275  0.09450274    -0.40000
C1425       C  0.90560016  0.02373443  0.13293467    -0.12200
C1426       C  0.88726531  0.99643203  0.12301598     0.04800
C1427       C  0.85397446  0.99989461  0.10524659    -0.07500
C1428       C  0.84013491  0.02983230  0.09769161    -0.08300
C1429       C  0.85841487  0.05682181  0.10803563    -0.02800
C1430       C  0.89149693  0.05362631  0.12571507     0.04000
N1431       N  0.91206674  0.08064151  0.13453315     0.66500
H1432       H  0.93138915  0.02198246  0.14557697     0.15400
H1433       H  0.81478670  0.03195991  0.08410444     0.15100
N1434       N  0.83447746  0.47319682  0.09260900     0.74200
O1435       O  0.91364026  0.09021506  0.16807816    -0.39300
O1436       O  0.93382525  0.09077188  0.11074649    -0.39200
O1437       O  0.81530908  0.45886254  0.11587159    -0.39900
O1438       O  0.83419586  0.46541993  0.05834815    -0.40000
C1439       C  0.88063765  0.30226476  0.13806944    -0.12200
C1440       C  0.90523899  0.30535492  0.10868029     0.04800
C1441       C  0.91258837  0.27917122  0.08604285    -0.07500
C1442       C  0.89567106  0.25062705  0.09332651    -0.08300
C1443       C  0.87112535  0.24753205  0.12272133    -0.02800
C1444       C  0.86338497  0.27382090  0.14498387     0.04000
N1445       N  0.83848832  0.27193149  0.17487239     0.66500
H1446       H  0.87402804  0.32242677  0.15540474     0.15400
H1447       H  0.90155038  0.23060862  0.07541434     0.15100
N1448       N  0.93762096  0.28102157  0.05621555     0.74200
O1449       O  0.84823978  0.26296161  0.20713774    -0.39300
O1450       O  0.80826817  0.28349599  0.17052370    -0.39200
O1451       O  0.96955985  0.28563582  0.06368169    -0.39900
O1452       O  0.92846183  0.27500252  0.02283379    -0.40000
C1453       C  0.98500263  0.10329061  0.78251671    -0.12200
C1454       C  0.52198926  0.10681854  0.78429842     0.04800
C1455       C  0.54023751  0.11107654  0.75027688    -0.07500
C1456       C  0.52202595  0.11006557  0.71587369    -0.08300
C1457       C  0.98536145  0.10483039  0.71406726    -0.02800
C1458       C  0.96684283  0.10215163  0.74812097     0.04000
N1459       N  0.92994718  0.09645122  0.74842029     0.66500
H1460       H  0.96993336  0.10017537  0.80807697     0.15400
H1461       H  0.53700799  0.11282901  0.69018766     0.15100
N1462       N  0.57727201  0.11597506  0.74995884     0.74200
O1463       O  0.91867071  0.06865873  0.74670312    -0.39300
O1464       O  0.90903896  0.11855626  0.75580939    -0.39200
O1465       O  0.59750936  0.09384467  0.74076838    -0.39900
O1466       O  0.58931772  0.14337484  0.75355352    -0.40000
C1467       C  0.52488186  0.00114247  0.96864602    -0.12200
C1468       C  0.52435348  0.03115600  0.98574081     0.04800
C1469       C  0.50073726  0.03652504  0.01526273    -0.07500
C1470       C  0.97790416  0.01263279  0.02634374    -0.08300
C1471       C  0.97888322  0.48243464  0.00975455    -0.02800
C1472       C  0.50254287  0.47723633  0.98022376     0.04000
N1473       N  0.50299071  0.44818418  0.95994535     0.66500
H1474       H  0.54226741  0.99643802  0.94518205     0.15400
H1475       H  0.96064377  0.01729055  0.04993837     0.15100
N1476       N  0.00059343  0.06564320  0.03538232     0.74200
O1477       O  0.47528276  0.43851710  0.94432840    -0.39300
O1478       O  0.53179839  0.43517944  0.95211314    -0.39200
O1479       O  0.97237390  0.08081878  0.03878525    -0.39900
O1480       O  0.52670938  0.07353335  0.05455851    -0.40000
C1481       C  0.63235426  0.20837598  0.85990284    -0.12200
C1482       C  0.60564168  0.20576156  0.88707424     0.04800
C1483       C  0.59508512  0.23272862  0.90665170    -0.07500
C1484       C  0.61079865  0.26164070  0.89842226    -0.08300
C1485       C  0.63779300  0.26427516  0.87153392    -0.02800
C1486       C  0.64877786  0.23711776  0.85243273     0.04000
N1487       N  0.67653213  0.23828623  0.82555500     0.66500
H1488       H  0.64130837  0.18760775  0.84491731     0.15400
H1489       H  0.60245676  0.28222771  0.91421103     0.15100
N1490       N  0.56819932  0.23117154  0.93449109     0.74200
O1491       O  0.70702262  0.22982945  0.83506457    -0.39300
O1492       O  0.66960800  0.24319977  0.79127869    -0.39200
O1493       O  0.57632189  0.22911734  0.96887990    -0.39900
O1494       O  0.53663216  0.23555439  0.92513749    -0.40000
C1495       C  0.65417043  0.47761847  0.91500047    -0.12200
C1496       C  0.65245348  0.45502086  0.88649792     0.04800
C1497       C  0.63294942  0.46217408  0.85335114    -0.07500
C1498       C  0.61642707  0.49146898  0.84926960    -0.08300
C1499       C  0.61913143  0.01432080  0.87707985    -0.02800
C1500       C  0.63769439  0.50684691  0.91085464     0.04000
N1501       N  0.63852420  0.52818108  0.94183097     0.66500
H1502       H  0.66795173  0.47241049  0.94111337     0.15400
H1503       H  0.60076123  0.99648887  0.82388067     0.15100
N1504       N  0.62797671  0.43939288  0.82438095     0.74200
O1505       O  0.61694853  0.52467134  0.96836772    -0.39300
O1506       O  0.66760551  0.04424445  0.94623135    -0.39200
O1507       O  0.60097505  0.42232042  0.82463535    -0.39900
O1508       O  0.64755367  0.43963059  0.79580051    -0.40000
C1509       C  0.65597781  0.13667428  0.01281757    -0.12200
C1510       C  0.66508094  0.12486950  0.97705118     0.04800
C1511       C  0.70053321  0.11855914  0.96923424    -0.07500
C1512       C  0.72565532  0.12275783  0.99770104    -0.08300
C1513       C  0.71644048  0.13463889  0.03333618    -0.02800
C1514       C  0.68132088  0.14213669  0.04056391     0.04000
N1515       N  0.67078686  0.15403575  0.07635306     0.66500
H1516       H  0.62879247  0.14188352  0.01929142     0.15400
H1517       H  0.75294851  0.11788986  0.99137124     0.15100
N1518       N  0.71146922  0.10769351  0.93300295     0.74200
O1519       O  0.66965444  0.18330154  0.08158946    -0.39300
O1520       O  0.65613161  0.13590484  0.09961292    -0.39200
O1521       O  0.70892176  0.12571531  0.90486122    -0.39900
O1522       O  0.73005514  0.08324963  0.93055414    -0.40000
C1523       C  0.97019014  0.15303945  0.98994042    -0.12200
C1524       C  0.96414871  0.12983705  0.96228608     0.04800
C1525       C  0.93365532  0.11136901  0.96501855    -0.07500
C1526       C  0.91037742  0.11607739  0.99494254    -0.08300
C1527       C  0.91699413  0.13867050  0.02286860    -0.02800
C1528       C  0.94719907  0.15727534  0.02030271     0.04000
N1529       N  0.95474517  0.18061422  0.04805834     0.66500
H1530       H  0.99380191  0.16709867  0.98910459     0.15400
H1531       H  0.88646148  0.10240769  0.99598210     0.15100
N1532       N  0.92558542  0.08818370  0.93732548     0.74200
O1533       O  0.95971182  0.17254433  0.08188117    -0.39300
O1534       O  0.96134052  0.20841519  0.03802553    -0.39200
O1535       O  0.92619245  0.05945801  0.94606952    -0.39900
O1536       O  0.91362036  0.09652231  0.90567054    -0.40000
O1537       O  0.57084706  0.54882692  0.86239439    -0.85300
O1538       O  0.55386927  0.55060547  0.93447829    -0.82400
C1539       C  0.54212770  0.55735960  0.96603340     0.98100
O1540       O  0.54063982  0.58624455  0.97542836    -0.82400
O1541       O  0.60799143  0.60750483  0.96513310    -0.85100
C1542       C  0.63580287  0.61750377  0.95080569     1.02700
O1543       O  0.63696818  0.62394997  0.91574422    -0.77800
O1544       O  0.62024573  0.56926723  0.88048491    -0.78000
C1545       C  0.60259983  0.54544536  0.87243434     1.02600
O1546       O  0.52029885  0.59926589  0.84966850    -0.85300
O1547       O  0.99651385  0.59440773  0.92264876    -0.82400
C1548       C  0.99272415  0.62211520  0.93542855     0.98200
O1549       O  0.51787683  0.64122057  0.93274305    -0.82400
O1550       O  0.58542659  0.66456646  0.92812381    -0.85000
C1551       C  0.59097491  0.67417096  0.89454994     1.02600
O1552       O  0.58785149  0.65571406  0.86720517    -0.77800
O1553       O  0.57322366  0.60280708  0.82601073    -0.78000
C1554       C  0.53979415  0.60352020  0.82170146     1.02600
Cr1555     Cr  0.53696975  0.57530770  0.89268481     1.93700
Cr1556     Cr  0.56328471  0.62386995  0.94762961     1.93200
Cr1557     Cr  0.60238145  0.61218027  0.87381301     1.39100
O1558       O  0.56727462  0.60448934  0.90432401    -1.23100
O1559       O  0.88759480  0.94064968  0.11953880    -0.85300
O1560       O  0.87129990  0.88605802  0.08269760    -0.82400
C1561       C  0.87091607  0.89288395  0.04770821     0.98100
O1562       O  0.89771847  0.90425394  0.03259892    -0.82400
O1563       O  0.96393915  0.92752272  0.02021855    -0.85100
C1564       C  0.96187774  0.95625925  0.03007795     1.02700
O1565       O  0.95117759  0.96244661  0.06225443    -0.77800
O1566       O  0.93691138  0.96228312  0.13518695    -0.78000
C1567       C  0.90460144  0.96501922  0.12700857     1.02600
O1568       O  0.93760138  0.90703382  0.16998094    -0.85300
O1569       O  0.92364480  0.85496720  0.12806545    -0.82400
C1570       C  0.91951472  0.83695774  0.10050287     0.98200
O1571       O  0.92356983  0.84724533  0.06697972    -0.82400
O1572       O  0.99028148  0.87267492  0.06036243    -0.85000
C1573       C  0.51475067  0.89217143  0.05705082     1.02600
O1574       O  0.51043440  0.91964689  0.07040641    -0.77800
O1575       O  0.98962309  0.91317876  0.14476009    -0.78000
C1576       C  0.97112118  0.90661897  0.17290061     1.02600
Cr1577     Cr  0.90710946  0.89808169  0.12348415     1.93700
Cr1578     Cr  0.94368403  0.88891314  0.04781874     1.93200
Cr1579     Cr  0.97046455  0.93736231  0.10280220     1.39100
O1580       O  0.94068487  0.90750483  0.09171136    -1.23100
O1581       O  0.63757406  0.81933847  0.87261227    -0.85300
O1582       O  0.62011619  0.87343813  0.90926922    -0.82400
C1583       C  0.61933908  0.86587836  0.94405072     0.98100
O1584       O  0.64608109  0.85479757  0.95975170    -0.82400
O1585       O  0.71297001  0.83324303  0.97349311    -0.85100
C1586       C  0.71227375  0.80440882  0.96410305     1.02700
O1587       O  0.70298792  0.79711621  0.93158418    -0.77800
O1588       O  0.68742422  0.79767010  0.85819189    -0.78000
C1589       C  0.65506203  0.79507075  0.86576260     1.02600
O1590       O  0.68735678  0.85287218  0.82255106    -0.85300
O1591       O  0.67243077  0.90544376  0.86507502    -0.82400
C1592       C  0.66708838  0.92309535  0.89277725     0.98200
O1593       O  0.67099092  0.91240322  0.92617638    -0.82400
O1594       O  0.73834091  0.88801136  0.93435061    -0.85000
C1595       C  0.76316580  0.86870443  0.93690450     1.02600
O1596       O  0.75995974  0.84147639  0.92264487    -0.77800
O1597       O  0.73928294  0.84723629  0.84829197    -0.78000
C1598       C  0.72088061  0.85252559  0.81959564     1.02600
Cr1599     Cr  0.65658743  0.86192533  0.86899082     1.93700
Cr1600     Cr  0.69192553  0.87107187  0.94550343     1.93200
Cr1601     Cr  0.72062174  0.82299727  0.89053587     1.39100
O1602       O  0.69001707  0.85250946  0.90139966    -1.23100
O1603       O  0.82124784  0.71409815  0.13572191    -0.85300
O1604       O  0.80456099  0.71368215  0.06264859    -0.82400
C1605       C  0.79404544  0.70625873  0.03064050     0.98100
O1606       O  0.79300669  0.67733669  0.02158415    -0.82400
O1607       O  0.86030032  0.65667882  0.03324459    -0.85100
C1608       C  0.88782378  0.64659435  0.04825443     1.02700
O1609       O  0.88841250  0.63942492  0.08316356    -0.77800
O1610       O  0.87093486  0.69268032  0.12035584    -0.78000
C1611       C  0.85344644  0.71679554  0.12754176     1.02600
O1612       O  0.77052924  0.66391919  0.14669127    -0.85300
O1613       O  0.74807307  0.66890363  0.07347179    -0.82400
C1614       C  0.74476238  0.64137282  0.06009720     0.98200
O1615       O  0.76982912  0.62233518  0.06241511    -0.82400
O1616       O  0.83772111  0.59875178  0.06796175    -0.85000
C1617       C  0.84299980  0.58831155  0.10123349     1.02600
O1618       O  0.83888680  0.60593809  0.12923769    -0.77800
O1619       O  0.82267496  0.65849174  0.17194261    -0.78000
C1620       C  0.78913947  0.65908314  0.17524480     1.02600
Cr1621     Cr  0.78791826  0.68807174  0.10426749     1.93700
Cr1622     Cr  0.81546454  0.63980526  0.04923677     1.93200
Cr1623     Cr  0.85289223  0.64994052  0.12464522     1.39100
O1624       O  0.81849809  0.65867180  0.09308373    -1.23100
O1625       O  0.93847263  0.54452169  0.63591629    -0.85300
O1626       O  0.95801839  0.54522276  0.56392599    -0.82400
C1627       C  0.96948348  0.55249547  0.53223478     0.98100
O1628       O  0.97146198  0.58148615  0.52334867    -0.82400
O1629       O  0.90456723  0.60391740  0.53033300    -0.85100
C1630       C  0.87616909  0.61306534  0.54414634     1.02700
O1631       O  0.87393697  0.61934775  0.57918099    -0.77800
O1632       O  0.88961521  0.56531574  0.61644682    -0.78000
C1633       C  0.90690393  0.54136350  0.62526658     1.02600
O1634       O  0.98880619  0.59466147  0.64919718    -0.85300
O1635       O  0.51459546  0.58900105  0.57716595    -0.82400
C1636       C  0.51848662  0.61665141  0.56429785     0.98200
O1637       O  0.49376460  0.63587336  0.56720645    -0.82400
O1638       O  0.92636880  0.66036747  0.56787145    -0.85000
C1639       C  0.91978190  0.67030684  0.60097760     1.02600
O1640       O  0.92180428  0.65187070  0.62859764    -0.77800
O1641       O  0.93533784  0.59935493  0.67118089    -0.78000
C1642       C  0.96864124  0.59997942  0.67631730     1.02600
Cr1643     Cr  0.97323599  0.57040734  0.60613031     1.93700
Cr1644     Cr  0.94875649  0.61936749  0.54996286     1.93200
Cr1645     Cr  0.90742790  0.60818217  0.62242718     1.39100
O1646       O  0.94317468  0.59978401  0.59304466    -1.23100
O1647       O  0.62197865  0.93826953  0.37545892    -0.85300
O1648       O  0.63886456  0.88415394  0.41207594    -0.82400
C1649       C  0.63753079  0.89061758  0.44712372     0.98100
O1650       O  0.60974261  0.90068314  0.46129529    -0.82400
O1651       O  0.54310040  0.92178843  0.47212890    -0.85100
C1652       C  0.54497041  0.95075791  0.46335146     1.02700
O1653       O  0.55559671  0.95806470  0.43135881    -0.77800
O1654       O  0.57250354  0.95944876  0.35877244    -0.78000
C1655       C  0.60453297  0.96238667  0.36782753     1.02600
O1656       O  0.57434259  0.90473551  0.32245508    -0.85300
O1657       O  0.58935877  0.85213300  0.36416170    -0.82400
C1658       C  0.59282099  0.83393709  0.39175411     0.98200
O1659       O  0.58713614  0.84359722  0.42517068    -0.82400
O1660       O  0.51949947  0.86739013  0.43002609    -0.85000
C1661       C  0.99479763  0.88665006  0.43301491     1.02600
O1662       O  0.99852388  0.91429203  0.41988879    -0.77800
O1663       O  0.52178124  0.90957348  0.34668513    -0.78000
C1664       C  0.54085963  0.90437841  0.31867722     1.02600
Cr1665     Cr  0.60387853  0.89561819  0.37006518     1.93700
Cr1666     Cr  0.56514266  0.88434551  0.44430060     1.93200
Cr1667     Cr  0.53875400  0.93331104  0.38950335     1.39100
O1668       O  0.56900558  0.90379635  0.40090482    -1.23100
O1669       O  0.87293475  0.81640606  0.61695811    -0.85300
O1670       O  0.88877024  0.86996001  0.57902956    -0.82400
C1671       C  0.88790751  0.86260158  0.54418339     0.98100
O1672       O  0.86039439  0.85202175  0.52974537    -0.82400
O1673       O  0.79308263  0.83054861  0.51922904    -0.85100
C1674       C  0.79453458  0.80167318  0.52878446     1.02700
O1675       O  0.80559526  0.79454355  0.56073774    -0.77800
O1676       O  0.82362710  0.79473717  0.63339664    -0.78000
C1677       C  0.85585318  0.79224415  0.62498485     1.01000
O1678       O  0.82461699  0.85007418  0.66913905    -0.85300
O1679       O  0.83807631  0.90240491  0.62545797    -0.82400
C1680       C  0.84216729  0.92029138  0.59760398     0.98200
O1681       O  0.83746885  0.90972996  0.56434001    -0.82400
O1682       O  0.77005967  0.88569691  0.56008869    -0.85000
C1683       C  0.74524685  0.86654379  0.55782450     1.02600
O1684       O  0.74878941  0.83909644  0.57165651    -0.77800
O1685       O  0.77224845  0.84455781  0.64472173    -0.78000
C1686       C  0.79113834  0.84973304  0.67295955     1.02600
Cr1687     Cr  0.85386925  0.85891871  0.62112430     1.93700
Cr1688     Cr  0.81553528  0.86846073  0.54619331     1.93200
Cr1689     Cr  0.78929400  0.82027083  0.60224338     1.39100
O1690       O  0.81939630  0.84966053  0.59011303    -1.23100
O1691       O  0.68727924  0.70877977  0.36176047    -0.85300
O1692       O  0.70537205  0.70822848  0.43442237    -0.82400
C1693       C  0.71560655  0.70059635  0.46655151     0.98100
O1694       O  0.71741201  0.67163313  0.47545543    -0.82400
O1695       O  0.65039676  0.65048618  0.46436527    -0.85100
C1696       C  0.62287764  0.63976436  0.45007372     1.02700
O1697       O  0.62217862  0.63264032  0.41518492    -0.77800
O1698       O  0.63804245  0.68694430  0.37777870    -0.78000
C1699       C  0.65496020  0.71124499  0.36987282     1.02600
O1700       O  0.73868388  0.65900946  0.34952071    -0.85300
O1701       O  0.76215158  0.66379387  0.42276755    -0.82400
C1702       C  0.76591693  0.63617481  0.43602891     0.98200
O1703       O  0.74100725  0.61707731  0.43406186    -0.82400
O1704       O  0.67381082  0.59306017  0.42916719    -0.85000
C1705       C  0.66903205  0.58300703  0.39574563     1.02600
O1706       O  0.67269303  0.60111340  0.36807817    -0.77800
O1707       O  0.68594615  0.65391398  0.32562616    -0.78000
C1708       C  0.71935217  0.65396421  0.32155103     1.02600
Cr1709     Cr  0.72162914  0.68287810  0.39251394     1.93700
Cr1710     Cr  0.69537349  0.63412870  0.44790452     1.93200
Cr1711     Cr  0.65695205  0.64444777  0.37326009     1.39100
O1712       O  0.69154099  0.65335277  0.40426789    -1.23100
C1713       C  0.74228351  0.78192458  0.49507032    -0.12200
C1714       C  0.77653121  0.77641822  0.50796228     0.04800
C1715       C  0.78842703  0.74504988  0.51148027    -0.07500
C1716       C  0.76629863  0.72010156  0.50215530    -0.08300
C1717       C  0.73231345  0.72559027  0.48879178    -0.02800
C1718       C  0.71987712  0.75688802  0.48603860     0.04000
N1719       N  0.68438413  0.76335157  0.47470628     0.66500
H1720       H  0.73203812  0.80578503  0.49448181     0.15400
H1721       H  0.77670038  0.69629234  0.50292766     0.15100
N1722       N  0.82327301  0.73823703  0.52403433     0.74200
O1723       O  0.67740221  0.78712904  0.45472841    -0.39300
O1724       O  0.65960117  0.74656749  0.48687072    -0.39200
O1725       O  0.82801006  0.72165962  0.55312303    -0.39900
O1726       O  0.84890111  0.74445126  0.50292492    -0.40000
C1727       C  0.97409677  0.86052504  0.49150263    -0.12200
C1728       C  0.96613034  0.87930849  0.45974177     0.04800
C1729       C  0.93303606  0.89381870  0.45761236    -0.07500
C1730       C  0.90843651  0.88862694  0.48617862    -0.08300
C1731       C  0.91655817  0.87002416  0.51787264    -0.02800
C1732       C  0.94985761  0.85627033  0.52069548     0.04000
N1733       N  0.95933221  0.83783767  0.55279769     0.66500
H1734       H  0.99984379  0.85002260  0.49449282     0.15400
H1735       H  0.88266638  0.89919169  0.48358880     0.15100
N1736       N  0.92383845  0.91349406  0.42647011     0.74200
O1737       O  0.95983861  0.80830594  0.55039219    -0.39300
O1738       O  0.97305736  0.85099413  0.58099458    -0.39200
O1739       O  0.90958890  0.90164450  0.39774199    -0.39900
O1740       O  0.92453867  0.94293648  0.43017206    -0.40000
C1741       C  0.65688221  0.87052459  0.50909339    -0.12200
C1742       C  0.66615434  0.88332135  0.47381157     0.04800
C1743       C  0.70136948  0.89056960  0.46673507    -0.07500
C1744       C  0.72638734  0.88589580  0.49519789    -0.08300
C1745       C  0.71697092  0.87342975  0.53061453    -0.02800
C1746       C  0.68195035  0.86531814  0.53723906     0.04000
N1747       N  0.67113892  0.85347471  0.57300833     0.66500
H1748       H  0.62976953  0.86477822  0.51503578     0.15400
H1749       H  0.75353794  0.89152709  0.48931399     0.15100
N1750       N  0.71189874  0.90365245  0.43148012     0.74200
O1751       O  0.66189922  0.87248906  0.59828731    -0.39300
O1752       O  0.66411545  0.82470169  0.57666891    -0.39200
O1753       O  0.71489268  0.93300896  0.42807764    -0.39900
O1754       O  0.72412500  0.88593362  0.40630845    -0.40000
C1755       C  0.65076348  0.49542889  0.39704980    -0.12200
C1756       C  0.62110064  0.49345733  0.37324946     0.04800
C1757       C  0.60766632  0.52129243  0.35728711    -0.07500
C1758       C  0.62430698  0.54996407  0.36454504    -0.08300
C1759       C  0.65367678  0.55179222  0.38853746    -0.02800
C1760       C  0.66671556  0.52424237  0.40514901     0.04000
N1761       N  0.69651584  0.52507258  0.42956688     0.66500
H1762       H  0.66073210  0.97449565  0.41132671     0.15400
H1763       H  0.61361953  0.57121174  0.35195629     0.15100
N1764       N  0.57718175  0.52094192  0.33385696     0.74200
O1765       O  0.69220541  0.52658774  0.46473007    -0.39300
O1766       O  0.72664885  0.51965959  0.41651486    -0.39200
O1767       O  0.54763299  0.52729230  0.34782250    -0.39900
O1768       O  0.58047589  0.51927014  0.29857731    -0.40000
C1769       C  0.59144364  0.77599055  0.39932551    -0.12200
C1770       C  0.60776821  0.80256362  0.38476970     0.04800
C1771       C  0.63878018  0.79904482  0.36340884    -0.07500
C1772       C  0.65348303  0.76921509  0.35804411    -0.08300
C1773       C  0.63722112  0.74235512  0.37262138    -0.02800
C1774       C  0.60535184  0.74608693  0.39280637     0.04000
N1775       N  0.58650549  0.71976047  0.40695172     0.66500
H1776       H  0.56741786  0.77838262  0.41530125     0.15400
H1777       H  0.67789923  0.76716570  0.34272412     0.15100
N1778       N  0.65666782  0.82578347  0.34859584     0.74200
O1779       O  0.58883513  0.71262803  0.44137758    -0.39300
O1780       O  0.56268447  0.70778315  0.38693948    -0.39200
O1781       O  0.68211550  0.83727808  0.36660208    -0.39900
O1782       O  0.65141798  0.83404546  0.31489726    -0.40000
C1783       C  0.86909558  0.50597607  0.58742836    -0.12200
C1784       C  0.89053230  0.51018589  0.61941419     0.04800
C1785       C  0.89542388  0.98498028  0.64383048    -0.07500
C1786       C  0.87818050  0.95647354  0.63697284    -0.08300
C1787       C  0.85713567  0.95204024  0.60461194    -0.02800
C1788       C  0.85332527  0.97719320  0.57910707     0.04000
N1789       N  0.83320474  0.97387623  0.54537125     0.66500
H1790       H  0.86540845  0.52516518  0.56764094     0.15400
H1791       H  0.88231716  0.93727887  0.65662745     0.15100
N1792       N  0.91737941  0.98788469  0.67628787     0.74200
O1793       O  0.80083865  0.48143693  0.54600540    -0.39300
O1794       O  0.84851697  0.96820334  0.51467171    -0.39200
O1795       O  0.90376884  0.99065594  0.70845007    -0.39900
O1796       O  0.94987040  0.98282359  0.67349561    -0.40000
C1797       C  0.88253252  0.70682498  0.63841609    -0.12200
C1798       C  0.90547908  0.70232649  0.60771971     0.04800
C1799       C  0.91216265  0.72785042  0.58353761    -0.07500
C1800       C  0.89649123  0.75704351  0.59061842    -0.08300
C1801       C  0.87345066  0.76139404  0.62113441    -0.02800
C1802       C  0.86646977  0.73594431  0.64519460     0.04000
N1803       N  0.84364987  0.73942320  0.67686390     0.66500
H1804       H  0.87661639  0.68745105  0.65716071     0.15400
H1805       H  0.90146943  0.77624174  0.57131542     0.15100
N1806       N  0.93466578  0.72454989  0.55168445     0.74200
O1807       O  0.81783380  0.72125625  0.68093402    -0.39300
O1808       O  0.84987904  0.76001365  0.70147882    -0.39200
O1809       O  0.92167598  0.71966856  0.51951695    -0.39900
O1810       O  0.96693409  0.73045928  0.55484367    -0.40000
C1811       C  0.98066474  0.49571445  0.52374703    -0.12200
C1812       C  0.98603124  0.52669519  0.51053484     0.04800
C1813       C  0.51298125  0.53209272  0.48417853    -0.07500
C1814       C  0.53445252  0.50703904  0.47335109    -0.08300
C1815       C  0.52907823  0.97647595  0.48561303    -0.02800
C1816       C  0.00270809  0.97106809  0.51242647     0.04000
N1817       N  0.99756044  0.94072244  0.52915031     0.66500
H1818       H  0.96139919  0.99134885  0.54469757     0.15400
H1819       H  0.55462469  0.51163080  0.45252489     0.15100
N1820       N  0.51865733  0.56235272  0.46743529     0.74200
O1821       O  0.02310072  0.92672841  0.54446531    -0.39300
O1822       O  0.96688543  0.93095957  0.53535341    -0.39200
O1823       O  0.54948075  0.57101234  0.45987979    -0.39900
O1824       O  0.49327599  0.57687648  0.45253945    -0.40000
C1825       C  0.78696745  0.61452284  0.49673560    -0.12200
C1826       C  0.79513079  0.62870012  0.46190742     0.04800
C1827       C  0.82970288  0.63826796  0.45503627    -0.07500
C1828       C  0.85544867  0.63329217  0.48259309    -0.08300
C1829       C  0.84725903  0.61919796  0.51743204    -0.02800
C1830       C  0.81262843  0.60997190  0.52451433     0.04000
N1831       N  0.80339897  0.59509378  0.55916952     0.66500
H1832       H  0.76023265  0.60759275  0.50283653     0.15400
H1833       H  0.88217409  0.64033085  0.47660956     0.15100
N1834       N  0.83940688  0.65139860  0.41953867     0.74200
O1835       O  0.79103693  0.61123626  0.58575639    -0.39300
O1836       O  0.80321151  0.56553276  0.56142395    -0.39200
O1837       O  0.84885080  0.67972316  0.41753976    -0.39900
O1838       O  0.84490691  0.63335478  0.39206950    -0.40000
C1839       C  0.60448177  0.61725068  0.51086847    -0.12200
C1840       C  0.59437907  0.63191068  0.47677948     0.04800
C1841       C  0.55909895  0.64126348  0.47206857    -0.07500
C1842       C  0.53593767  0.63798397  0.50251800    -0.08300
C1843       C  0.54621301  0.62352713  0.53652242    -0.02800
C1844       C  0.58060966  0.61232741  0.54016176     0.04000
N1845       N  0.59184805  0.59651072  0.57361185     0.66500
H1846       H  0.63134485  0.60951962  0.51480679     0.15400
H1847       H  0.50882329  0.64497512  0.49870138     0.15100
N1848       N  0.54580731  0.65301965  0.43686314     0.74200
O1849       O  0.59432541  0.56697205  0.57387335    -0.39300
O1850       O  0.60421391  0.61211289  0.60070330    -0.39200
O1851       O  0.55373361  0.63941575  0.40653637    -0.39900
O1852       O  0.52054358  0.67222107  0.43670160    -0.40000
C1853       C  0.78968641  0.64783664  0.24489910    -0.12200
C1854       C  0.77072240  0.65568243  0.21239530     0.04800
C1855       C  0.73384204  0.66054979  0.21602200    -0.07500
C1856       C  0.71739191  0.65775622  0.25119962    -0.08300
C1857       C  0.73658742  0.65107975  0.28384120    -0.02800
C1858       C  0.77321067  0.64551881  0.28017696     0.04000
N1859       N  0.79442628  0.63807268  0.31217008     0.66500
H1860       H  0.81774658  0.64372535  0.24311133     0.15400
H1861       H  0.68949013  0.66262943  0.25317689     0.15100
N1862       N  0.71262969  0.67000375  0.18472565     0.74200
O1863       O  0.79523602  0.61031183  0.32462737    -0.39300
O1864       O  0.81616072  0.65796322  0.32425273    -0.39200
O1865       O  0.68989175  0.65139815  0.17186875    -0.39900
O1866       O  0.71177542  0.69853760  0.17509283    -0.40000
C1867       C  0.71954253  0.85351625  0.74901240    -0.12200
C1868       C  0.73908708  0.85561370  0.78227332     0.04800
C1869       C  0.77621450  0.85798614  0.77911597    -0.07500
C1870       C  0.79261900  0.85677253  0.74362266    -0.08300
C1871       C  0.77307050  0.85340568  0.71038663    -0.02800
C1872       C  0.73581398  0.85231054  0.71363413     0.04000
N1873       N  0.71368113  0.84936653  0.68134001     0.66500
H1874       H  0.69118604  0.85173367  0.75036197     0.15400
H1875       H  0.82100270  0.85803448  0.74223403     0.15100
N1876       N  0.79790392  0.86149654  0.81168336     0.74200
O1877       O  0.70402393  0.82248240  0.67070423    -0.39300
O1878       O  0.69852563  0.87339995  0.66831126    -0.39200
O1879       O  0.81502864  0.83828094  0.82407807    -0.39900
O1880       O  0.80428835  0.88859463  0.82417535    -0.40000
C1881       C  0.74333622  0.72391410  0.99275951    -0.12200
C1882       C  0.77588612  0.73102323  0.00896683     0.04800
C1883       C  0.78535915  0.76290451  0.01368079    -0.07500
C1884       C  0.76225078  0.78678083  0.00271728    -0.08300
C1885       C  0.72980238  0.77968016  0.98634889    -0.02800
C1886       C  0.72019439  0.74783462  0.98182436     0.04000
N1887       N  0.68666848  0.73949583  0.96674867     0.66500
H1888       H  0.73482888  0.69966523  0.99068456     0.15400
H1889       H  0.77077349  0.81102471  0.00483234     0.15100
N1890       N  0.81872681  0.77138214  0.02902326     0.74200
O1891       O  0.68479826  0.72306452  0.93730483    -0.39300
O1892       O  0.65940770  0.74421116  0.98598687    -0.39200
O1893       O  0.84583731  0.76881549  0.00898551    -0.39900
O1894       O  0.82027389  0.78642896  0.05954273    -0.40000
C1895       C  0.96956201  0.90029704  0.24289803    -0.12200
C1896       C  0.98922672  0.90102559  0.20973935     0.04800
C1897       C  0.52634878  0.89882371  0.21265547    -0.07500
C1898       C  0.54272833  0.89913736  0.24817281    -0.08300
C1899       C  0.52301943  0.90030608  0.28137501    -0.02800
C1900       C  0.98583240  0.89938480  0.27830010     0.04000
N1901       N  0.96381655  0.89796928  0.31077421     0.66500
H1902       H  0.94113184  0.90111873  0.24152793     0.15400
H1903       H  0.57115900  0.89870064  0.24966510     0.15100
N1904       N  0.54793022  0.89583814  0.17997905     0.74200
O1905       O  0.94831775  0.92240862  0.32194516    -0.39300
O1906       O  0.95542771  0.87162940  0.32433164    -0.39200
O1907       O  0.56939513  0.91725386  0.17165717    -0.39900
O1908       O  0.54904313  0.87004431  0.16262117    -0.40000
C1909       C  0.59345888  0.90082567  0.99170741    -0.12200
C1910       C  0.58984570  0.87407220  0.96894732     0.04800
C1911       C  0.56361328  0.85216727  0.97760374    -0.07500
C1912       C  0.54121677  0.85750412  0.00819728    -0.08300
C1913       C  0.54402450  0.88470485  0.03064372    -0.02800
C1914       C  0.57102844  0.90630197  0.02234977     0.04000
N1915       N  0.57668799  0.93339665  0.04525128     0.66500
H1916       H  0.61484727  0.91703304  0.98651086     0.15400
H1917       H  0.52056488  0.84059164  0.01343983     0.15100
N1918       N  0.55951259  0.82428800  0.95572522     0.74200
O1919       O  0.58734694  0.93011549  0.07871234    -0.39300
O1920       O  0.57554559  0.96044891  0.03072826    -0.39200
O1921       O  0.55843558  0.79788487  0.97186868    -0.39900
O1922       O  0.55199494  0.82636431  0.92117262    -0.40000
C1923       C  0.85111506  0.87113022  0.98694836    -0.12200
C1924       C  0.84178491  0.88421792  0.02201904     0.04800
C1925       C  0.80621499  0.89123011  0.02893467    -0.07500
C1926       C  0.78173702  0.88752733  0.99962476    -0.08300
C1927       C  0.79138208  0.87522486  0.96436044    -0.02800
C1928       C  0.82624979  0.86608226  0.95855872     0.04000
N1929       N  0.83705323  0.85285285  0.92353827     0.66500
H1930       H  0.87826851  0.86509089  0.98131309     0.15400
H1931       H  0.75439944  0.89299490  0.00502311     0.15100
N1932       N  0.79431579  0.90199208  0.06497423     0.74200
O1933       O  0.84431824  0.87071273  0.89627031    -0.39300
O1934       O  0.84463714  0.82405750  0.92171561    -0.39200
O1935       O  0.76992089  0.92200313  0.06671678    -0.39900
O1936       O  0.80255046  0.88697186  0.09437595    -0.40000
C1937       C  0.90530407  0.52369056  0.13327092    -0.12200
C1938       C  0.88721319  0.49638478  0.12286147     0.04800
C1939       C  0.85419792  0.49984423  0.10449633    -0.07500
C1940       C  0.84040389  0.52979544  0.09683820    -0.08300
C1941       C  0.85841286  0.55679480  0.10773158    -0.02800
C1942       C  0.89121460  0.55358416  0.12600931     0.04000
N1943       N  0.91151759  0.58060820  0.13548350     0.66500
H1944       H  0.93088168  0.52194149  0.14640199     0.15400
H1945       H  0.81525731  0.53192207  0.08282522     0.15100
N1946       N  0.83409416  0.97326401  0.09365056     0.74200
O1947       O  0.91269724  0.58983091  0.16918887    -0.39300
O1948       O  0.93335444  0.59119009  0.11206399    -0.39200
O1949       O  0.81518734  0.95893514  0.11716598    -0.39900
O1950       O  0.83357444  0.96538872  0.05942653    -0.40000
C1951       C  0.87986901  0.80248791  0.13738675    -0.12200
C1952       C  0.90463171  0.80549828  0.10814664     0.04800
C1953       C  0.91218080  0.77923950  0.08574846    -0.07500
C1954       C  0.89536256  0.75067452  0.09313676    -0.08300
C1955       C  0.87066639  0.74762993  0.12239772    -0.02800
C1956       C  0.86268067  0.77402181  0.14440256     0.04000
N1957       N  0.83761270  0.77221439  0.17413149     0.66500
H1958       H  0.87311318  0.82273221  0.15454993     0.15400
H1959       H  0.90141944  0.73058610  0.07536333     0.15100
N1960       N  0.93734627  0.78105344  0.05607410     0.74200
O1961       O  0.84723447  0.76356742  0.20656667    -0.39300
O1962       O  0.80734371  0.78358601  0.16944638    -0.39200
O1963       O  0.96944153  0.78434161  0.06378395    -0.39900
O1964       O  0.92796609  0.77655198  0.02241567    -0.40000
C1965       C  0.98509344  0.60446068  0.78242628    -0.12200
C1966       C  0.52205032  0.60669807  0.78418376     0.04800
C1967       C  0.54044571  0.60999746  0.75010502    -0.07500
C1968       C  0.52221659  0.60907652  0.71571617    -0.08300
C1969       C  0.98550999  0.60478802  0.71394700    -0.02800
C1970       C  0.96689221  0.60333646  0.74804846     0.04000
N1971       N  0.92976271  0.59901466  0.74846976     0.66500
H1972       H  0.96990014  0.60236375  0.80804887     0.15400
H1973       H  0.53732691  0.61107051  0.69001780     0.15100
N1974       N  0.57765712  0.61366824  0.74970450     0.74200
O1975       O  0.91721465  0.57164584  0.74721198    -0.39300
O1976       O  0.90991158  0.62193949  0.75562845    -0.39200
O1977       O  0.59698926  0.59060257  0.74162580    -0.39900
O1978       O  0.59080202  0.64075921  0.75198269    -0.40000
C1979       C  0.52555856  0.50119545  0.96970213    -0.12200
C1980       C  0.52432284  0.53138659  0.98627941     0.04800
C1981       C  0.50023702  0.53679292  0.01536073    -0.07500
C1982       C  0.97750179  0.51266299  0.02623509    -0.08300
C1983       C  0.97859136  0.98256432  0.00940530    -0.02800
C1984       C  0.50172880  0.97730938  0.97926150     0.04000
N1985       N  0.50142146  0.94847482  0.95854797     0.66500
H1986       H  0.54338023  0.49644476  0.94663040     0.15400
H1987       H  0.95977339  0.51734167  0.04942056     0.15100
N1988       N  0.99952968  0.56594771  0.03513635     0.74200
O1989       O  0.47336240  0.93936691  0.94317040    -0.39300
O1990       O  0.52989046  0.93510572  0.95019709    -0.39200
O1991       O  0.97089525  0.58038643  0.03909928    -0.39900
O1992       O  0.52554905  0.57464722  0.05399654    -0.40000
C1993       C  0.63320930  0.70793855  0.86020874    -0.12200
C1994       C  0.60597226  0.70554186  0.88680362     0.04800
C1995       C  0.59461786  0.73276015  0.90533198    -0.07500
C1996       C  0.61012529  0.76166632  0.89664435    -0.08300
C1997       C  0.63778637  0.76410162  0.87053028    -0.02800
C1998       C  0.64946818  0.73670854  0.85239150     0.04000
N1999       N  0.67771813  0.73767624  0.82610963     0.66500
H2000       H  0.64263913  0.68698989  0.84591155     0.15400
H2001       H  0.60124426  0.78245387  0.91176247     0.15100
N2002       N  0.56716226  0.73145420  0.93256128     0.74200
O2003       O  0.70804631  0.72936594  0.83637805    -0.39300
O2004       O  0.67143549  0.74233312  0.79164208    -0.39200
O2005       O  0.57420564  0.72454369  0.96632427    -0.39900
O2006       O  0.53691146  0.74124453  0.92406992    -0.40000
C2007       C  0.65457656  0.97774792  0.91431671    -0.12200
C2008       C  0.65212431  0.95496850  0.88609074     0.04800
C2009       C  0.63220067  0.96206359  0.85322661    -0.07500
C2010       C  0.61592253  0.99146581  0.84915603    -0.08300
C2011       C  0.61891921  0.51413691  0.87748868    -0.02800
C2012       C  0.63838706  0.00710779  0.91016054     0.04000
N2013       N  0.63997291  0.02866091  0.94088702     0.66500
H2014       H  0.66872171  0.97258280  0.94021862     0.15400
H2015       H  0.60164560  0.49655819  0.82375604     0.15100
N2016       N  0.62654861  0.93912038  0.82458325     0.74200
O2017       O  0.61810509  0.02615332  0.96730699    -0.39300
O2018       O  0.66552872  0.54460651  0.94722839    -0.39200
O2019       O  0.59908770  0.92265082  0.82513279    -0.39900
O2020       O  0.64599712  0.93872989  0.79590460    -0.40000
C2021       C  0.65578606  0.63693730  0.01270211    -0.12200
C2022       C  0.66479207  0.62466957  0.97713970     0.04800
C2023       C  0.70014052  0.61770055  0.96956218    -0.07500
C2024       C  0.72524465  0.62181874  0.99806205    -0.08300
C2025       C  0.71614754  0.63422307  0.03347528    -0.02800
C2026       C  0.68113479  0.64227206  0.04047436     0.04000
N2027       N  0.67069357  0.65460718  0.07608044     0.66500
H2028       H  0.62867230  0.64258836  0.01899726     0.15400
H2029       H  0.75246636  0.61650623  0.99188896     0.15100
N2030       N  0.71098563  0.60622443  0.93356084     0.74200
O2031       O  0.66946523  0.68393490  0.08077525    -0.39300
O2032       O  0.65621508  0.63673101  0.09974848    -0.39200
O2033       O  0.70831106  0.62373188  0.90496982    -0.39900
O2034       O  0.72955000  0.58173122  0.93163958    -0.40000
C2035       C  0.96922688  0.65390015  0.98852306    -0.12200
C2036       C  0.96363894  0.63000725  0.96163265     0.04800
C2037       C  0.93355856  0.61106435  0.96508713    -0.07500
C2038       C  0.91042115  0.61583513  0.99513846    -0.08300
C2039       C  0.91671696  0.63902300  0.02243646    -0.02800
C2040       C  0.94633382  0.65828536  0.01894211     0.04000
N2041       N  0.95334752  0.68250508  0.04575105     0.66500
H2042       H  0.99243465  0.66845272  0.98705698     0.15400
H2043       H  0.88685081  0.60173153  0.99675976     0.15100
N2044       N  0.92576017  0.58730486  0.93801188     0.74200
O2045       O  0.95844863  0.67547526  0.07987961    -0.39300
O2046       O  0.95942185  0.71010404  0.03458941    -0.39200
O2047       O  0.92694790  0.55874082  0.94743514    -0.39900
O2048       O  0.91336441  0.59494216  0.90629419    -0.40000
loop_ 
_geom_bond_atom_site_label_1 
_geom_bond_atom_site_label_2 
_geom_bond_distance 
_geom_bond_site_symmetry_2 
_ccdc_geom_bond_type 
O1          Cr19   2.027       .  S
O1            C9   1.270       .  A
O2          Cr19   1.926       .  S
O2            C3   1.242       .  A
C3            O4   1.277       .  A
C3          C444   1.485       .  S
O4          Cr20   2.072       .  S
O5          Cr20   1.941       .  S
O5            C6   1.253       .  A
C6            O7   1.275       .  A
C6          C486   1.480       .  S
O7          Cr21   2.052       .  S
O8          Cr21   1.965       .  S
O8            C9   1.252       .  A
C9          C475   1.482       .  S
O10         Cr19   1.940       .  S
O10          C18   1.255       .  A
O11       Cr1043   2.050       .  S
O11          C12   1.274       .  A
C12        O1037   1.253       .  A
C12         C500   1.487       .  S
O13         Cr20   1.952       .  S
O13        C1036   1.253   1_455  A
O14         Cr20   2.050       .  S
O14          C15   1.278       .  A
C15          O16   1.257       .  A
C15         C458   1.481       .  S
O16         Cr21   1.949       .  S
O17         Cr21   2.067       .  S
O17          C18   1.284       .  A
C18         C430   1.498       .  S
Cr19       O1035   2.050   1_455  S
Cr19         O22   1.749       .  S
Cr20         O22   1.754       .  S
Cr21         O22   1.755       .  S
O23         Cr41   1.965       .  S
O23          C31   1.254       .  A
O24         Cr41   2.054       .  S
O24          C25   1.275       .  A
C25          O26   1.253       .  A
C25         C388   1.483       .  S
O26         Cr42   1.944       .  S
O27         Cr42   2.064       .  S
O27          C28   1.277       .  A
C28          O29   1.243       .  A
C28         C447   1.483       .  S
O29         Cr43   1.934       .  S
O30         Cr43   2.025       .  S
O30          C31   1.271       .  A
C31         C914   1.498       .  S
O32         Cr41   2.054       .  S
O32          C40   1.283       .  A
O33         Cr41   1.948       .  S
O33          C34   1.255       .  A
C34          O35   1.277       .  A
C34         C416   1.481       .  S
O35         Cr42   2.050       .  S
O36         Cr42   1.955       .  S
O36        C1061   1.255       .  A
C37          O38   1.275       .  A
C37        O1060   1.255   1_455  A
C37         C377   1.494       .  S
O38       Cr1067   2.055   1_455  S
O39         Cr43   1.949       .  S
O39          C40   1.256       .  A
C40         C360   1.496       .  S
Cr41         O44   1.755       .  S
Cr42         O44   1.754       .  S
Cr43       O1062   2.055       .  S
Cr43         O44   1.752       .  S
O45         Cr63   1.959       .  S
O45          C53   1.254       .  A
O46         Cr63   2.057       .  S
O46          C47   1.276       .  A
C47          O48   1.252       .  A
C47         C374   1.475       .  S
O48         Cr64   1.948       .  S
O49         Cr64   2.053       .  S
O49          C50   1.274       .  A
C50          O51   1.247       .  A
C50         C349   1.473       .  S
O51         Cr65   1.947       .  S
O52         Cr65   2.021       .  S
O52          C53   1.269       .  A
C53         C461   1.483       .  S
O54         Cr63   2.064       .  S
O54          C62   1.284       .  A
O55         Cr63   1.955       .  S
O55          C56   1.257       .  A
C56          O57   1.277       .  A
C56         C472   1.491       .  S
O57         Cr64   2.047       .  S
O58         Cr64   1.954       .  S
O58          C59   1.256       .  A
C59          O60   1.272       .  A
C59         C391   1.476       .  S
O60         Cr65   2.041       .  S
O61         Cr65   1.953       .  S
O61          C62   1.255       .  A
C62         C332   1.503       .  S
Cr63         O66   1.760       .  S
Cr64         O66   1.758       .  S
Cr65         O66   1.759       .  S
O67         Cr85   2.024       .  S
O67          C75   1.268       .  A
O68         Cr85   1.944       .  S
O68          C69   1.246       .  A
C69          O70   1.275       .  A
C69         C346   1.474       .  S
O70         Cr86   2.057       .  S
O71         Cr86   1.941       .  S
O71          C72   1.251       .  A
C72          O73   1.276       .  A
C72         C503   1.471       .  S
O73         Cr87   2.053       .  S
O74         Cr87   1.953       .  S
O74          C75   1.251       .  A
C75         C419   1.480       .  S
O76         Cr85   1.941       .  S
O76          C84   1.253       .  A
O77         Cr85   2.043       .  S
O77          C78   1.273       .  A
C78          O79   1.255       .  A
C78         C489   1.475       .  S
O79         Cr86   1.952       .  S
O80         Cr86   2.051       .  S
O80          C81   1.276       .  A
C81          O82   1.258       .  A
C81         C405   1.481       .  S
O82         Cr87   1.956       .  S
O83         Cr87   2.071       .  S
O83          C84   1.285       .  A
C84         C318   1.503       .  S
Cr85         O88   1.757       .  S
Cr86         O88   1.758       .  S
Cr87         O88   1.762       .  S
O89        Cr107   2.025       .  S
O89          C97   1.269       .  A
O90        Cr107   1.934       .  S
O90          C91   1.247       .  A
C91          O92   1.276       .  A
C91         C276   1.485       .  S
O92        Cr108   2.063       .  S
O93        Cr108   1.939       .  S
O93          C94   1.252       .  A
C94          O95   1.276       .  A
C94         C293   1.475       .  S
O95        Cr109   2.049       .  S
O96        Cr109   1.961       .  S
O96          C97   1.253       .  A
C97         C248   1.484       .  S
O98        Cr107   1.941       .  S
O98         C106   1.255       .  A
O99       Cr1131   2.045   1_455  S
O99         C100   1.271       .  A
C100        O101   1.253   1_455  A
C100        C307   1.478       .  S
O101      Cr1132   1.952       .  S
O102       Cr108   2.047       .  S
O102        C103   1.276       .  A
C103        O104   1.257       .  A
C103        C262   1.489       .  S
O104       Cr109   1.954       .  S
O105       Cr109   2.063       .  S
O105        C106   1.283       .  A
C106        C433   1.496       .  S
Cr107      O1123   2.045       .  S
Cr107       O110   1.757       .  S
Cr108      O1125   1.952       .  S
Cr108       O110   1.754       .  S
Cr109       O110   1.756       .  S
O111       Cr129   1.955       .  S
O111        C119   1.252       .  A
O112       Cr129   2.055       .  S
O112        C113   1.276       .  A
C113        O114   1.250       .  A
C113        C206   1.475       .  S
O114       Cr130   1.935       .  S
O115       Cr130   2.059       .  S
O115        C116   1.274       .  A
C116        O117   1.246       .  A
C116        C279   1.483       .  S
O117       Cr131   1.934       .  S
O118       Cr131   2.023       .  S
O118        C119   1.269       .  A
C119        C732   1.487       .  S
O120       Cr129   2.064       .  S
O120        C128   1.284       .  A
O121       Cr129   1.946       .  S
O121        C122   1.254       .  A
C122        O123   1.276       .  A
C122        C234   1.474       .  S
O123       Cr130   2.045       .  S
O124       Cr130   1.952       .  S
O124       C1149   1.254   1_455  A
C125        O126   1.273       .  A
C125       O1148   1.254       .  A
C125        C192   1.482       .  S
O126      Cr1155   2.046       .  S
O127       Cr131   1.939       .  S
O127        C128   1.254       .  A
C128        C363   1.498       .  S
Cr129       O132   1.761       .  S
Cr130       O132   1.755       .  S
Cr131      O1150   2.046   1_455  S
Cr131       O132   1.751       .  S
O133       Cr151   1.956       .  S
O133        C141   1.252       .  A
O134       Cr151   2.058       .  S
O134        C135   1.278       .  A
C135        O136   1.252       .  A
C135        C195   1.474       .  S
O136       Cr152   1.939       .  S
O137       Cr152   2.065       .  S
O137        C138   1.276       .  A
C138        O139   1.246       .  A
C138        C178   1.476       .  S
O139       Cr153   1.942       .  S
O140       Cr153   2.026       .  S
O140        C141   1.270       .  A
C141        C265   1.481       .  S
O142       Cr151   2.073       .  S
O142        C150   1.285       .  A
O143       Cr151   1.954       .  S
O143        C144   1.257       .  A
C144        O145   1.277       .  A
C144        C251   1.490       .  S
O145       Cr152   2.052       .  S
O146       Cr152   1.948       .  S
O146        C147   1.253       .  A
C147        O148   1.274       .  A
C147        C209   1.476       .  S
O148       Cr153   2.048       .  S
O149       Cr153   1.944       .  S
O149        C150   1.253       .  A
C150        C335   1.506       .  S
Cr151       O154   1.759       .  S
Cr152       O154   1.757       .  S
Cr153       O154   1.754       .  S
O155       Cr173   2.026       .  S
O155        C163   1.271       .  A
O156       Cr173   1.943       .  S
O156        C157   1.247       .  A
C157        O158   1.275       .  A
C157        C181   1.472       .  S
O158       Cr174   2.055       .  S
O159       Cr174   1.943       .  S
O159        C160   1.252       .  A
C160        O161   1.277       .  A
C160        C304   1.483       .  S
O161       Cr175   2.059       .  S
O162       Cr175   1.955       .  S
O162        C163   1.253       .  A
C163        C237   1.491       .  S
O164       Cr173   1.949       .  S
O164        C172   1.254       .  A
O165       Cr173   2.045       .  S
O165        C166   1.274       .  A
C166        O167   1.254       .  A
C166        C290   1.476       .  S
O167       Cr174   1.950       .  S
O168       Cr174   2.047       .  S
O168        C169   1.276       .  A
C169        O170   1.256       .  A
C169        C223   1.477       .  S
O170       Cr175   1.950       .  S
O171       Cr175   2.063       .  S
O171        C172   1.283       .  A
C172        C321   1.499       .  S
Cr173       O176   1.754       .  S
Cr174       O176   1.756       .  S
Cr175       O176   1.758       .  S
C177        C178   1.402       .  A
C177        C182   1.405       .  A
C177        H184   1.089       .  S
C178        C179   1.416       .  A
C179        C180   1.398       .  A
C179        N186   1.430       .  S
C180        C181   1.398       .  A
C180        H185   1.089       .  S
C181        C182   1.418       .  A
C182        N183   1.438       .  S
N183        O187   1.263       .  A
N183        O188   1.263       .  A
N186        O190   1.262       .  A
N186        O189   1.262       .  A
C191        C192   1.413       .  A
C191        C196   1.403       .  A
C191        H198   1.083       .  S
C192        C193   1.406       .  A
C193        C194   1.401       .  A
C193        N200   1.428       .  S
C194        C195   1.408       .  A
C194        H199   1.084       .  S
C195        C196   1.401       .  A
C196        N197   1.428       .  S
N197        O201   1.261       .  A
N197        O202   1.262       .  A
N200        O204   1.262       .  A
N200        O203   1.262       .  A
C205        C206   1.410       .  A
C205        C210   1.399       .  A
C205        H212   1.084       .  S
C206        C207   1.402       .  A
C207        C208   1.402       .  A
C207        N214   1.428       .  S
C208        C209   1.412       .  A
C208        H213   1.084       .  S
C209        C210   1.402       .  A
C210        N211   1.428       .  S
N211        O215   1.261       .  A
N211        O216   1.262       .  A
N214        O218   1.262       .  A
N214        O217   1.262       .  A
C219        C220   1.413       .  A
C219        C224   1.401   1_565  A
C219        H738   1.086       .  S
C220        C631   1.487       .  S
C220        C221   1.408   1_565  A
C221        C222   1.401       .  A
C221        N228   1.428       .  S
C222        C223   1.408       .  A
C222        H227   1.086       .  S
C223        C224   1.402       .  A
C224        N225   1.428       .  S
N225        O229   1.262       .  A
N225        O230   1.262       .  A
H226        C731   1.086       .  S
N228        O232   1.262       .  A
N228        O231   1.262       .  A
C233        C234   1.392       .  A
C233        C238   1.399       .  A
C233        H240   1.084       .  S
C234        C235   1.415       .  A
C235        C236   1.402       .  A
C235        N242   1.429       .  S
C236        C237   1.401       .  A
C236        H241   1.083       .  S
C237        C238   1.422       .  A
C238        N239   1.424       .  S
N239        O243   1.262       .  A
N239        O244   1.261       .  A
N242        O246   1.262       .  A
N242        O245   1.261       .  A
C247        C248   1.410       .  A
C247        C764   1.404   1_545  A
C247        H254   1.085       .  S
C248        C761   1.404   1_545  A
C249        C250   1.404       .  A
C249        C760   1.405       .  A
C249        N256   1.429       .  S
C250        C251   1.413       .  A
C250        H255   1.085       .  S
C251        C252   1.408       .  A
C252        C759   1.403       .  A
C252        N253   1.428       .  S
N253        O769   1.262       .  A
N253        O258   1.262       .  A
N256        O260   1.262       .  A
N256        O259   1.262       .  A
O257        N765   1.262       .  A
C261        C262   1.413       .  A
C261        C266   1.404       .  A
C261        H268   1.083       .  S
C262        C263   1.408       .  A
C263        C264   1.402       .  A
C263        N270   1.429       .  S
C264        C265   1.410       .  A
C264        H269   1.083       .  S
C265        C266   1.405       .  A
C266        N267   1.432       .  S
N267        O271   1.262       .  A
N267        O272   1.262       .  A
N270        O274   1.262       .  A
N270        O273   1.262       .  A
C275        C276   1.415   1_565  A
C275        C792   1.400       .  A
C275        H794   1.086       .  S
C276       C1301   1.409       .  A
C277        C278   1.400       .  A
C277       C1300   1.409   1_455  A
C277        N284   1.435       .  S
C278        C791   1.412   1_545  A
C278        H283   1.086       .  S
C279        C790   1.412       .  A
C279       C1304   1.408       .  A
C280        C787   1.401       .  A
C280       C1303   1.408       .  A
C280        N281   1.435       .  S
N281        O285   1.262       .  A
N281        O286   1.262       .  A
H282        C787   1.086       .  S
N284        O288   1.262   1_455  A
N284        O287   1.262       .  A
C289        C290   1.411       .  A
C289        C294   1.400       .  A
C289        H296   1.084       .  S
C290        C291   1.403       .  A
C291        C292   1.400       .  A
C291        N298   1.428       .  S
C292        C293   1.410       .  A
C292        H297   1.085       .  S
C293        C294   1.402       .  A
C294        N295   1.428       .  S
N295        O299   1.262       .  A
N295        O300   1.262       .  A
N298        O302   1.261       .  A
N298        O301   1.262       .  A
C303        C304   1.413       .  A
C303        C308   1.400       .  A
C303        H310   1.084       .  S
C304        C305   1.412       .  A
C305        C306   1.405       .  A
C305        N312   1.436       .  S
C306        C307   1.408       .  A
C306        H311   1.084       .  S
C307        C308   1.401       .  A
C308        N309   1.428       .  S
N309        O313   1.262       .  A
N309        O314   1.262       .  A
N312        O316   1.263       .  A
N312        O315   1.262       .  A
C317        C318   1.400       .  A
C317        C322   1.406       .  A
C317        H324   1.086       .  S
C318        C319   1.428       .  A
C319        C320   1.404       .  A
C319        N326   1.429       .  S
C320        C321   1.398       .  A
C320        H325   1.087       .  S
C321        C322   1.423       .  A
C322        N323   1.428       .  S
N323        O327   1.262       .  A
N323        O328   1.262       .  A
N326        O330   1.262       .  A
N326        O329   1.261       .  A
C331        C332   1.398       .  A
C331        C336   1.404       .  A
C331        H338   1.086       .  S
C332        C333   1.425       .  A
C333        C334   1.409       .  A
C333        N340   1.429       .  S
C334        C335   1.402       .  A
C334        H339   1.085       .  S
C335        C336   1.427       .  A
C336        N337   1.428       .  S
N337        O341   1.262       .  A
N337        O342   1.261       .  A
N340        O344   1.262       .  A
N340        O343   1.262       .  A
C345        C346   1.401   1_556  A
C345        C350   1.400       .  A
C345        H352   1.086       .  S
C346        C347   1.416       .  A
C347        C348   1.399       .  A
C347        N354   1.430       .  S
C348        C349   1.400   1_554  A
C348        H353   1.086       .  S
C349        C350   1.415       .  A
C350        N351   1.431       .  S
N351        O355   1.262       .  A
N351        O356   1.262       .  A
N354        O358   1.262       .  A
N354        O357   1.262       .  A
C359        C360   1.398       .  A
C359        C364   1.401       .  A
C359        H366   1.086       .  S
C360       C1385   1.423       .  A
C361        C362   1.406       .  A
C361       C1384   1.423   1_455  A
C361        N368   1.430       .  S
C362        C363   1.401       .  A
C362        H367   1.086       .  S
C363       C1388   1.425   1_455  A
C364       C1387   1.425       .  A
C364        N365   1.430       .  S
N365        O369   1.262       .  A
N365        O370   1.262       .  A
N368        O372   1.262       .  A
N368        O371   1.262       .  A
C373        C374   1.406       .  A
C373        C378   1.405   1_556  A
C373        H380   1.086       .  S
C374        C375   1.404       .  A
C375        C376   1.404   1_556  A
C375        N382   1.431       .  S
C376        C377   1.413       .  A
C376        H381   1.085       .  S
C377        C378   1.412       .  A
C378        N379   1.430       .  S
N379        O383   1.262       .  A
N379        O384   1.262       .  A
N382        O386   1.262       .  A
N382        O385   1.262       .  A
C387        C388   1.412   1_556  A
C387        C392   1.400       .  A
C387        H394   1.086       .  S
C388        C389   1.411       .  A
C389        C390   1.405   1_554  A
C389        N396   1.435       .  S
C390        C391   1.408       .  A
C390        H395   1.086   1_556  S
C391        C392   1.401       .  A
C392        N393   1.428       .  S
N393        O397   1.262       .  A
N393        O398   1.262       .  A
N396        O400   1.262       .  A
N396        O399   1.263       .  A
C401        C402   1.403   1_545  A
C401        C406   1.404       .  A
C401        H408   1.083       .  S
C402        C543   1.498       .  S
C402        C403   1.424       .  A
C403        C404   1.405   1_565  A
C403        N922   1.427       .  S
C404        C405   1.395       .  A
C404        H409   1.083       .  S
C405        C406   1.414       .  A
C406        N407   1.429       .  S
N407        O411   1.261       .  A
N407        O412   1.262       .  A
N410        C915   1.427       .  S
N410        O414   1.262       .  A
N410        O413   1.262       .  A
C415        C416   1.412       .  A
C415        C420   1.401       .  A
C415        H422   1.088       .  S
C416        C417   1.405       .  A
C417        C418   1.402       .  A
C417        N424   1.430       .  S
C418        C419   1.410       .  A
C418        H423   1.089       .  S
C419        C420   1.404       .  A
C420        N421   1.428       .  S
N421        O425   1.262       .  A
N421        O426   1.262       .  A
N424        O428   1.262       .  A
N424        O427   1.262       .  A
C429        C434   1.404       .  A
C429       C1454   1.416       .  A
C429        H436   1.084       .  S
C430        C431   1.407       .  A
C430       C1453   1.416   1_455  A
C431        C432   1.404       .  A
C431        N438   1.428       .  S
C432       C1457   1.415   1_455  A
C432        H437   1.084       .  S
C433        C434   1.407       .  A
C433       C1456   1.415       .  A
C434        N435   1.429       .  S
N435        O439   1.262       .  A
N435        O440   1.262       .  A
N438        O442   1.262       .  A
N438        O441   1.262       .  A
C443        C444   1.417       .  A
C443        C960   1.398   1_545  A
C443        H450   1.085   1_545  S
C444        C445   1.403   1_556  A
C445       C1470   1.399   1_455  A
C445       N1476   1.430       .  S
C446       C1469   1.399       .  A
C446        C959   1.417   1_545  A
C446        H451   1.086       .  S
C447        C958   1.417       .  A
C447       C1472   1.404   1_554  A
C448        C955   1.398       .  A
C448       C1471   1.405   1_456  A
C448        N449   1.434       .  S
N449        O453   1.262   1_455  A
N449        O454   1.262       .  A
N452       C1469   1.431       .  S
N452       O1480   1.262       .  A
N452        O455   1.261       .  A
O456       N1476   1.262       .  A
C457        C458   1.410       .  A
C457        C462   1.401       .  A
C457        H464   1.089       .  S
C458        C459   1.404       .  A
C459        C460   1.401       .  A
C459        N466   1.428       .  S
C460        C461   1.411       .  A
C460        H465   1.090       .  S
C461        C462   1.406       .  A
C462        N463   1.428       .  S
N463        O467   1.262       .  A
N463        O468   1.262       .  A
N466        O470   1.262       .  A
N466        O469   1.262       .  A
C471        C472   1.400       .  A
C471        C476   1.401       .  A
C471        H478   1.087       .  S
C472        C473   1.423       .  A
C473        C474   1.404       .  A
C473        N480   1.429       .  S
C474        C987   1.397       .  A
C474        H991   1.087       .  S
C475        C986   1.397   1_545  A
C475        C988   1.416       .  A
C476        C987   1.416       .  A
C476        N477   1.429       .  S
N477        O481   1.262       .  A
N477        O994   1.261       .  A
H479        C986   1.087       .  S
N480        O484   1.262       .  A
N480        O483   1.262       .  A
O482        N989   1.261       .  A
C485        C486   1.411   1_554  A
C485        C490   1.399       .  A
C485        H492   1.086       .  S
C486        C487   1.407       .  A
C487        C488   1.403       .  A
C487        N494   1.432       .  S
C488        C489   1.409   1_556  A
C488        H493   1.086       .  S
C489        C490   1.401       .  A
C490        N491   1.428       .  S
N491        O495   1.262       .  A
N491        O496   1.262       .  A
N494        O498   1.262       .  A
N494        O497   1.262       .  A
C499        C500   1.414       .  A
C499        C504   1.404   1_556  A
C499        H506   1.083       .  S
C500        C501   1.409       .  A
C501        C502   1.401       .  A
C501        N508   1.429       .  S
C502        C503   1.407   1_556  A
C502        H507   1.084       .  S
C503        C504   1.403       .  A
C504        N505   1.431       .  S
N505        O509   1.262       .  A
N505        O510   1.262       .  A
N508        O512   1.262       .  A
N508        O511   1.262       .  A
O513       Cr531   2.027       .  S
O513        C521   1.269       .  A
O514       Cr531   1.926       .  S
O514        C515   1.242       .  A
C515        O516   1.277       .  A
C515        C956   1.484       .  S
O516       Cr532   2.071       .  S
O517       Cr532   1.941       .  S
O517        C518   1.253       .  A
C518        O519   1.275       .  A
C518        C998   1.479       .  S
O519       Cr533   2.050       .  S
O520       Cr533   1.963       .  S
O520        C521   1.252       .  A
C521        C987   1.481       .  S
O522       Cr531   1.940       .  S
O522        C530   1.255       .  A
O523      Cr1555   2.050       .  S
O523        C524   1.274       .  A
C524       O1549   1.254       .  A
C524       C1012   1.488       .  S
O525       Cr532   1.953       .  S
O525       C1548   1.254   1_455  A
O526       Cr532   2.049       .  S
O526        C527   1.278       .  A
C527        O528   1.257       .  A
C527        C970   1.480       .  S
O528       Cr533   1.948       .  S
O529       Cr533   2.067       .  S
O529        C530   1.284       .  A
C530        C942   1.498       .  S
Cr531      O1547   2.050   1_455  S
Cr531       O534   1.749       .  S
Cr532       O534   1.754       .  S
Cr533       O534   1.756       .  S
O535       Cr553   1.964       .  S
O535        C543   1.254       .  A
O536       Cr553   2.054       .  S
O536        C537   1.275       .  A
C537        O538   1.253       .  A
C537        C900   1.484       .  S
O538       Cr554   1.945       .  S
O539       Cr554   2.065       .  S
O539        C540   1.277       .  A
C540        O541   1.243       .  A
C540        C959   1.484       .  S
O541       Cr555   1.934       .  S
O542       Cr555   2.024       .  S
O542        C543   1.271       .  A
O544       Cr553   2.054       .  S
O544        C552   1.283       .  A
O545       Cr553   1.948       .  S
O545        C546   1.255       .  A
C546        O547   1.277       .  A
C546        C928   1.481       .  S
O547       Cr554   2.050       .  S
O548       Cr554   1.956       .  S
O548       C1573   1.255       .  A
C549       O1572   1.255   1_455  A
C549        O550   1.275       .  A
C549        C889   1.495       .  S
O550      Cr1579   2.054   1_455  S
O551       Cr555   1.949       .  S
O551        C552   1.256       .  A
C552        C872   1.496       .  S
Cr553       O556   1.755       .  S
Cr554       O556   1.754       .  S
Cr555      O1574   2.054       .  S
Cr555       O556   1.752       .  S
O557       Cr575   1.959       .  S
O557        C565   1.254       .  A
O558       Cr575   2.058       .  S
O558        C559   1.276       .  A
C559        O560   1.252       .  A
C559        C886   1.475       .  S
O560       Cr576   1.950       .  S
O561       Cr576   2.052       .  S
O561        C562   1.274       .  A
C562        O563   1.247       .  A
C562        C861   1.473       .  S
O563       Cr577   1.947       .  S
O564       Cr577   2.022       .  S
O564        C565   1.269       .  A
C565        C973   1.485       .  S
O566       Cr575   2.064       .  S
O566        C574   1.284       .  A
O567       Cr575   1.956       .  S
O567        C568   1.257       .  A
C568        O569   1.278       .  A
C568        C984   1.490       .  S
O569       Cr576   2.048       .  S
O570       Cr576   1.954       .  S
O570        C571   1.256       .  A
C571        O572   1.273       .  A
C571        C903   1.477       .  S
O572       Cr577   2.042       .  S
O573       Cr577   1.955       .  S
O573        C574   1.255       .  A
C574        C844   1.504       .  S
Cr575       O578   1.760       .  S
Cr576       O578   1.758       .  S
Cr577       O578   1.759       .  S
O579       Cr597   2.024       .  S
O579        C587   1.268       .  A
O580       Cr597   1.943       .  S
O580        C581   1.246       .  A
C581        O582   1.275       .  A
C581        C858   1.475       .  S
O582       Cr598   2.058       .  S
O583       Cr598   1.942       .  S
O583        C584   1.251       .  A
C584        O585   1.276       .  A
C584       C1015   1.472       .  S
O585       Cr599   2.054       .  S
O586       Cr599   1.953       .  S
O586        C587   1.251       .  A
C587        C931   1.481       .  S
O588       Cr597   1.941       .  S
O588        C596   1.253       .  A
O589       Cr597   2.043       .  S
O589        C590   1.273       .  A
C590        O591   1.255       .  A
C590       C1001   1.475       .  S
O591       Cr598   1.952       .  S
O592       Cr598   2.051       .  S
O592        C593   1.277       .  A
C593        O594   1.258       .  A
C593        C917   1.482       .  S
O594       Cr599   1.957       .  S
O595       Cr599   2.072       .  S
O595        C596   1.285       .  A
C596        C830   1.503       .  S
Cr597       O600   1.757       .  S
Cr598       O600   1.758       .  S
Cr599       O600   1.762       .  S
O601       Cr619   2.025       .  S
O601        C609   1.269       .  A
O602       Cr619   1.934       .  S
O602        C603   1.247       .  A
C603        O604   1.276       .  A
C603        C788   1.485       .  S
O604       Cr620   2.063       .  S
O605       Cr620   1.939       .  S
O605        C606   1.252       .  A
C606        O607   1.276       .  A
C606        C805   1.475       .  S
O607       Cr621   2.049       .  S
O608       Cr621   1.961       .  S
O608        C609   1.253       .  A
C609        C760   1.484       .  S
O610       Cr619   1.941       .  S
O610        C618   1.255       .  A
O611      Cr1643   2.045   1_455  S
O611        C612   1.271       .  A
C612        O613   1.253   1_455  A
C612        C819   1.477       .  S
O613      Cr1644   1.952       .  S
O614       Cr620   2.047       .  S
O614        C615   1.276       .  A
C615        O616   1.257       .  A
C615        C774   1.489       .  S
O616       Cr621   1.954       .  S
O617       Cr621   2.063       .  S
O617        C618   1.283       .  A
C618        C945   1.496       .  S
Cr619      O1635   2.045       .  S
Cr619       O622   1.757       .  S
Cr620      O1637   1.952       .  S
Cr620       O622   1.754       .  S
Cr621       O622   1.756       .  S
O623       Cr641   1.955       .  S
O623        C631   1.252       .  A
O624       Cr641   2.056       .  S
O624        C625   1.277       .  A
C625        O626   1.250       .  A
C625        C718   1.476       .  S
O626       Cr642   1.935       .  S
O627       Cr642   2.058       .  S
O627        C628   1.274       .  A
C628        O629   1.246       .  A
C628        C791   1.483       .  S
O629       Cr643   1.934       .  S
O630       Cr643   2.023       .  S
O630        C631   1.269       .  A
O632       Cr641   2.065       .  S
O632        C640   1.284       .  A
O633       Cr641   1.946       .  S
O633        C634   1.254       .  A
C634        O635   1.276       .  A
C634        C746   1.474       .  S
O635       Cr642   2.045       .  S
O636       Cr642   1.952       .  S
O636       C1661   1.254   1_455  A
C637       O1660   1.254       .  A
C637        O638   1.274       .  A
C637        C704   1.483       .  S
O638      Cr1667   2.048       .  S
O639       Cr643   1.939       .  S
O639        C640   1.254       .  A
C640        C875   1.498       .  S
Cr641       O644   1.760       .  S
Cr642       O644   1.754       .  S
Cr643      O1662   2.047   1_455  S
Cr643       O644   1.751       .  S
O645       Cr663   1.957       .  S
O645        C653   1.252       .  A
O646       Cr663   2.059       .  S
O646        C647   1.278       .  A
C647        O648   1.252       .  A
C647        C707   1.474       .  S
O648       Cr664   1.940       .  S
O649       Cr664   2.066       .  S
O649        C650   1.276       .  A
C650        O651   1.246       .  A
C650        C690   1.476       .  S
O651       Cr665   1.942       .  S
O652       Cr665   2.026       .  S
O652        C653   1.270       .  A
C653        C777   1.482       .  S
O654       Cr663   2.074       .  S
O654        C662   1.285       .  A
O655       Cr663   1.954       .  S
O655        C656   1.257       .  A
C656        O657   1.277       .  A
C656        C763   1.490       .  S
O657       Cr664   2.053       .  S
O658       Cr664   1.948       .  S
O658        C659   1.253       .  A
C659        O660   1.274       .  A
C659        C721   1.475       .  S
O660       Cr665   2.047       .  S
O661       Cr665   1.944       .  S
O661        C662   1.253       .  A
C662        C847   1.507       .  S
Cr663       O666   1.759       .  S
Cr664       O666   1.757       .  S
Cr665       O666   1.754       .  S
O667       Cr685   2.027       .  S
O667        C675   1.271       .  A
O668       Cr685   1.944       .  S
O668        C669   1.247       .  A
C669        O670   1.275       .  A
C669        C693   1.472       .  S
O670       Cr686   2.056       .  S
O671       Cr686   1.943       .  S
O671        C672   1.252       .  A
C672        O673   1.277       .  A
C672        C816   1.483       .  S
O673       Cr687   2.058       .  S
O674       Cr687   1.955       .  S
O674        C675   1.252       .  A
C675        C749   1.491       .  S
O676       Cr685   1.949       .  S
O676        C684   1.255       .  A
O677       Cr685   2.046       .  S
O677        C678   1.274       .  A
C678        O679   1.254       .  A
C678        C802   1.476       .  S
O679       Cr686   1.950       .  S
O680       Cr686   2.047       .  S
O680        C681   1.276       .  A
C681        O682   1.256       .  A
C681        C735   1.477       .  S
O682       Cr687   1.950       .  S
O683       Cr687   2.063       .  S
O683        C684   1.283       .  A
C684        C833   1.499       .  S
Cr685       O688   1.754       .  S
Cr686       O688   1.756       .  S
Cr687       O688   1.759       .  S
C689        C690   1.402       .  A
C689        C694   1.405       .  A
C689        H696   1.089       .  S
C690        C691   1.416       .  A
C691        C692   1.398       .  A
C691        N698   1.430       .  S
C692        C693   1.398       .  A
C692        H697   1.089       .  S
C693        C694   1.418       .  A
C694        N695   1.437       .  S
N695        O699   1.263       .  A
N695        O700   1.263       .  A
N698        O702   1.262       .  A
N698        O701   1.262       .  A
C703        C704   1.413       .  A
C703        C708   1.403       .  A
C703        H710   1.083       .  S
C704        C705   1.407       .  A
C705        C706   1.401       .  A
C705        N712   1.428       .  S
C706        C707   1.408       .  A
C706        H711   1.084       .  S
C707        C708   1.401       .  A
C708        N709   1.428       .  S
N709        O713   1.261       .  A
N709        O714   1.262       .  A
N712        O716   1.262       .  A
N712        O715   1.262       .  A
C717        C718   1.411       .  A
C717        C722   1.398       .  A
C717        H724   1.084       .  S
C718        C719   1.402       .  A
C719        C720   1.402       .  A
C719        N726   1.428       .  S
C720        C721   1.411       .  A
C720        H725   1.084       .  S
C721        C722   1.401       .  A
C722        N723   1.428       .  S
N723        O727   1.261       .  A
N723        O728   1.262       .  A
N726        O730   1.261       .  A
N726        O729   1.262       .  A
C731        C732   1.413       .  A
C731        C736   1.401       .  A
C732        C733   1.408       .  A
C733        C734   1.402       .  A
C733        N740   1.428       .  S
C734        C735   1.408       .  A
C734        H739   1.087       .  S
C735        C736   1.402       .  A
C736        N737   1.428       .  S
N737        O741   1.262       .  A
N737        O742   1.262       .  A
N740        O744   1.262       .  A
N740        O743   1.262       .  A
C745        C746   1.392       .  A
C745        C750   1.399       .  A
C745        H752   1.084       .  S
C746        C747   1.415       .  A
C747        C748   1.402       .  A
C747        N754   1.429       .  S
C748        C749   1.401       .  A
C748        H753   1.083       .  S
C749        C750   1.422       .  A
C750        N751   1.424       .  S
N751        O755   1.262       .  A
N751        O756   1.261       .  A
N754        O758   1.262       .  A
N754        O757   1.261       .  A
C759        C760   1.410       .  A
C759        H766   1.085       .  S
C761        C762   1.404       .  A
C761        N768   1.429       .  S
C762        C763   1.413       .  A
C762        H767   1.085       .  S
C763        C764   1.408       .  A
C764        N765   1.428       .  S
N765        O770   1.262       .  A
N768        O772   1.262       .  A
N768        O771   1.262       .  A
C773        C774   1.413       .  A
C773        C778   1.404       .  A
C773        H780   1.083       .  S
C774        C775   1.408       .  A
C775        C776   1.403       .  A
C775        N782   1.429       .  S
C776        C777   1.410       .  A
C776        H781   1.083       .  S
C777        C778   1.405       .  A
C778        N779   1.432       .  S
N779        O783   1.262       .  A
N779        O784   1.262       .  A
N782        O786   1.262       .  A
N782        O785   1.262       .  A
C787        C788   1.415       .  A
C788       C1813   1.409       .  A
C789       C1812   1.409   1_455  A
C789        C790   1.400       .  A
C789        N796   1.435       .  S
C790        H795   1.086       .  S
C791       C1816   1.407       .  A
C792       C1815   1.407       .  A
C792        N793   1.435       .  S
N793        O797   1.262       .  A
N793        O798   1.262       .  A
N796        O800   1.262   1_455  A
N796        O799   1.262       .  A
C801        C802   1.411       .  A
C801        C806   1.401       .  A
C801        H808   1.084       .  S
C802        C803   1.403       .  A
C803        C804   1.400       .  A
C803        N810   1.428       .  S
C804        C805   1.410       .  A
C804        H809   1.085       .  S
C805        C806   1.402       .  A
C806        N807   1.428       .  S
N807        O811   1.262       .  A
N807        O812   1.262       .  A
N810        O814   1.261       .  A
N810        O813   1.262       .  A
C815        C816   1.413       .  A
C815        C820   1.400       .  A
C815        H822   1.084       .  S
C816        C817   1.412       .  A
C817        C818   1.405       .  A
C817        N824   1.436       .  S
C818        C819   1.408       .  A
C818        H823   1.084       .  S
C819        C820   1.401       .  A
C820        N821   1.428       .  S
N821        O825   1.262       .  A
N821        O826   1.262       .  A
N824        O828   1.263       .  A
N824        O827   1.262       .  A
C829        C830   1.400       .  A
C829        C834   1.406       .  A
C829        H836   1.086       .  S
C830        C831   1.428       .  A
C831        C832   1.404       .  A
C831        N838   1.430       .  S
C832        C833   1.398       .  A
C832        H837   1.087       .  S
C833        C834   1.423       .  A
C834        N835   1.428       .  S
N835        O839   1.262       .  A
N835        O840   1.262       .  A
N838        O842   1.262       .  A
N838        O841   1.261       .  A
C843        C844   1.398       .  A
C843        C848   1.404       .  A
C843        H850   1.086       .  S
C844        C845   1.425       .  A
C845        C846   1.410       .  A
C845        N852   1.428       .  S
C846        C847   1.402       .  A
C846        H851   1.085       .  S
C847        C848   1.427       .  A
C848        N849   1.428       .  S
N849        O853   1.262       .  A
N849        O854   1.261       .  A
N852        O856   1.262       .  A
N852        O855   1.262       .  A
C857        C858   1.401   1_556  A
C857        C862   1.401       .  A
C857        H864   1.086       .  S
C858        C859   1.416       .  A
C859        C860   1.399       .  A
C859        N866   1.431       .  S
C860        C861   1.400   1_554  A
C860        H865   1.086       .  S
C861        C862   1.415       .  A
C862        N863   1.431       .  S
N863        O867   1.262       .  A
N863        O868   1.262       .  A
N866        O870   1.262       .  A
N866        O869   1.262       .  A
C871        C872   1.398       .  A
C871        C876   1.401       .  A
C871        H878   1.086       .  S
C872       C1897   1.424       .  A
C873       C1896   1.424   1_455  A
C873        C874   1.406       .  A
C873        N880   1.430       .  S
C874        C875   1.401       .  A
C874        H879   1.086       .  S
C875       C1900   1.425   1_455  A
C876       C1899   1.425       .  A
C876        N877   1.430       .  S
N877        O881   1.262       .  A
N877        O882   1.262       .  A
N880        O884   1.262       .  A
N880        O883   1.262       .  A
C885        C886   1.406       .  A
C885        C890   1.406   1_556  A
C885        H892   1.086       .  S
C886        C887   1.404       .  A
C887        C888   1.403   1_556  A
C887        N894   1.430       .  S
C888        C889   1.412       .  A
C888        H893   1.085       .  S
C889        C890   1.413       .  A
C890        N891   1.430       .  S
N891        O895   1.262       .  A
N891        O896   1.262       .  A
N894        O898   1.262       .  A
N894        O897   1.262       .  A
C899        C900   1.412   1_556  A
C899        C904   1.400       .  A
C899        H906   1.086       .  S
C900        C901   1.411       .  A
C901        C902   1.406   1_554  A
C901        N908   1.435       .  S
C902        C903   1.408       .  A
C902        H907   1.086   1_556  S
C903        C904   1.401       .  A
C904        N905   1.428       .  S
N905        O909   1.261       .  A
N905        O910   1.262       .  A
N908        O912   1.262       .  A
N908        O911   1.263       .  A
C913        C914   1.404       .  A
C913        C918   1.404       .  A
C913        H920   1.083       .  S
C914        C915   1.424       .  A
C915        C916   1.405       .  A
C916        C917   1.396       .  A
C916        H921   1.083       .  S
C917        C918   1.414       .  A
C918        N919   1.429       .  S
N919        O923   1.261       .  A
N919        O924   1.262       .  A
N922        O926   1.262       .  A
N922        O925   1.262       .  A
C927        C928   1.411       .  A
C927        C932   1.402       .  A
C927        H934   1.088       .  S
C928        C929   1.405       .  A
C929        C930   1.401       .  A
C929        N936   1.430       .  S
C930        C931   1.410       .  A
C930        H935   1.089       .  S
C931        C932   1.404       .  A
C932        N933   1.428       .  S
N933        O937   1.262       .  A
N933        O938   1.262       .  A
N936        O940   1.262       .  A
N936        O939   1.262       .  A
C941       C1966   1.416       .  A
C941        C946   1.404       .  A
C941        H948   1.084       .  S
C942       C1965   1.416   1_455  A
C942        C943   1.407       .  A
C943        C944   1.404       .  A
C943        N950   1.428       .  S
C944       C1969   1.416   1_455  A
C944        H949   1.084       .  S
C945       C1968   1.415       .  A
C945        C946   1.407       .  A
C946        N947   1.429       .  S
N947        O951   1.262       .  A
N947        O952   1.262       .  A
N950        O954   1.262       .  A
N950        O953   1.262       .  A
C955        C956   1.417       .  A
C955        H962   1.085       .  S
C956        C957   1.403   1_556  A
C957       C1982   1.400   1_455  A
C957       N1988   1.431   1_455  S
C958       C1981   1.400       .  A
C958        H963   1.086       .  S
C959       C1984   1.404   1_554  A
C960       C1983   1.404   1_456  A
C960        N961   1.434       .  S
N961        O965   1.262   1_455  A
N961        O966   1.262       .  A
N964       C1981   1.431       .  S
N964       O1992   1.262       .  A
N964        O967   1.261       .  A
O968       N1988   1.262   1_455  A
C969        C970   1.410       .  A
C969        C974   1.402       .  A
C969        H976   1.089       .  S
C970        C971   1.403       .  A
C971        C972   1.401       .  A
C971        N978   1.428       .  S
C972        C973   1.410       .  A
C972        H977   1.091       .  S
C973        C974   1.407       .  A
C974        N975   1.428       .  S
N975        O979   1.262       .  A
N975        O980   1.262       .  A
N978        O982   1.262       .  A
N978        O981   1.262       .  A
C983        C984   1.400       .  A
C983        C988   1.401   1_565  A
C983        H990   1.087       .  S
C984        C985   1.422       .  A
C985        C986   1.404       .  A
C985        N992   1.429       .  S
C988        N989   1.429       .  S
N989        O993   1.262       .  A
N992        O996   1.262       .  A
N992        O995   1.262       .  A
C997        C998   1.411   1_554  A
C997       C1002   1.399       .  A
C997       H1004   1.086       .  S
C998        C999   1.407       .  A
C999       C1000   1.403       .  A
C999       N1006   1.432       .  S
C1000      C1001   1.409   1_556  A
C1000      H1005   1.086       .  S
C1001      C1002   1.401       .  A
C1002      N1003   1.428       .  S
N1003      O1007   1.262       .  A
N1003      O1008   1.262       .  A
N1006      O1010   1.262       .  A
N1006      O1009   1.262       .  A
C1011      C1012   1.414       .  A
C1011      C1016   1.404   1_556  A
C1011      H1018   1.083       .  S
C1012      C1013   1.409       .  A
C1013      C1014   1.401       .  A
C1013      N1020   1.429       .  S
C1014      C1015   1.407   1_556  A
C1014      H1019   1.084       .  S
C1015      C1016   1.403       .  A
C1016      N1017   1.431       .  S
N1017      O1021   1.262       .  A
N1017      O1022   1.262       .  A
N1020      O1024   1.262       .  A
N1020      O1023   1.262       .  A
O1025     Cr1043   2.027       .  S
O1025      C1033   1.270       .  A
O1026     Cr1043   1.926       .  S
O1026      C1027   1.242       .  A
C1027      O1028   1.277       .  A
C1027      C1468   1.484       .  S
O1028     Cr1044   2.072       .  S
O1029     Cr1044   1.941       .  S
O1029      C1030   1.253       .  A
C1030      O1031   1.275       .  A
C1030      C1510   1.480       .  S
O1031     Cr1045   2.052       .  S
O1032     Cr1045   1.964       .  S
O1032      C1033   1.252       .  A
C1033      C1499   1.482       .  S
O1034     Cr1043   1.940       .  S
O1034      C1042   1.255       .  A
O1035      C1036   1.274       .  A
C1036      C1524   1.488       .  S
O1037     Cr1044   1.952       .  S
O1038     Cr1044   2.050       .  S
O1038      C1039   1.278       .  A
C1039      O1040   1.257       .  A
C1039      C1482   1.480       .  S
O1040     Cr1045   1.948       .  S
O1041     Cr1045   2.067       .  S
O1041      C1042   1.284       .  A
C1042      C1454   1.498       .  S
Cr1043     O1046   1.748       .  S
Cr1044     O1046   1.754       .  S
Cr1045     O1046   1.755       .  S
O1047     Cr1065   1.965       .  S
O1047      C1055   1.254       .  A
O1048     Cr1065   2.054       .  S
O1048      C1049   1.275       .  A
C1049      O1050   1.253       .  A
C1049      C1412   1.483       .  S
O1050     Cr1066   1.944       .  S
O1051     Cr1066   2.064       .  S
O1051      C1052   1.277       .  A
C1052      O1053   1.243       .  A
C1052      C1471   1.484       .  S
O1053     Cr1067   1.934       .  S
O1054     Cr1067   2.025       .  S
O1054      C1055   1.271       .  A
C1055      C1938   1.498       .  S
O1056     Cr1065   2.054       .  S
O1056      C1064   1.283       .  A
O1057     Cr1065   1.948       .  S
O1057      C1058   1.255       .  A
C1058      O1059   1.277       .  A
C1058      C1440   1.481       .  S
O1059     Cr1066   2.049       .  S
O1060     Cr1066   1.955       .  S
C1061      O1062   1.275       .  A
C1061      C1401   1.494       .  S
O1063     Cr1067   1.949       .  S
O1063      C1064   1.256       .  A
C1064      C1384   1.496       .  S
Cr1065     O1068   1.755       .  S
Cr1066     O1068   1.754       .  S
Cr1067     O1068   1.752       .  S
O1069     Cr1087   1.959       .  S
O1069      C1077   1.254       .  A
O1070     Cr1087   2.057       .  S
O1070      C1071   1.276       .  A
C1071      O1072   1.252       .  A
C1071      C1398   1.475       .  S
O1072     Cr1088   1.949       .  S
O1073     Cr1088   2.053       .  S
O1073      C1074   1.274       .  A
C1074      O1075   1.247       .  A
C1074      C1373   1.473       .  S
O1075     Cr1089   1.947       .  S
O1076     Cr1089   2.021       .  S
O1076      C1077   1.269       .  A
C1077      C1485   1.484       .  S
O1078     Cr1087   2.064       .  S
O1078      C1086   1.284       .  A
O1079     Cr1087   1.955       .  S
O1079      C1080   1.257       .  A
C1080      O1081   1.277       .  A
C1080      C1496   1.491       .  S
O1081     Cr1088   2.048       .  S
O1082     Cr1088   1.954       .  S
O1082      C1083   1.256       .  A
C1083      O1084   1.272       .  A
C1083      C1415   1.476       .  S
O1084     Cr1089   2.041       .  S
O1085     Cr1089   1.954       .  S
O1085      C1086   1.255       .  A
C1086      C1356   1.503       .  S
Cr1087     O1090   1.760       .  S
Cr1088     O1090   1.758       .  S
Cr1089     O1090   1.759       .  S
O1091     Cr1109   2.024       .  S
O1091      C1099   1.268       .  A
O1092     Cr1109   1.944       .  S
O1092      C1093   1.246       .  A
C1093      O1094   1.275       .  A
C1093      C1370   1.474       .  S
O1094     Cr1110   2.058       .  S
O1095     Cr1110   1.941       .  S
O1095      C1096   1.251       .  A
C1096      O1097   1.276       .  A
C1096      C1527   1.471       .  S
O1097     Cr1111   2.053       .  S
O1098     Cr1111   1.953       .  S
O1098      C1099   1.251       .  A
C1099      C1443   1.480       .  S
O1100     Cr1109   1.941       .  S
O1100      C1108   1.253       .  A
O1101     Cr1109   2.043       .  S
O1101      C1102   1.273       .  A
C1102      O1103   1.255       .  A
C1102      C1513   1.475       .  S
O1103     Cr1110   1.952       .  S
O1104     Cr1110   2.050       .  S
O1104      C1105   1.276       .  A
C1105      O1106   1.258       .  A
C1105      C1429   1.481       .  S
O1106     Cr1111   1.956       .  S
O1107     Cr1111   2.071       .  S
O1107      C1108   1.285       .  A
C1108      C1342   1.502       .  S
Cr1109     O1112   1.757       .  S
Cr1110     O1112   1.758       .  S
Cr1111     O1112   1.762       .  S
O1113     Cr1131   2.025       .  S
O1113      C1121   1.269       .  A
O1114     Cr1131   1.934       .  S
O1114      C1115   1.247       .  A
C1115      O1116   1.276       .  A
C1115      C1300   1.485       .  S
O1116     Cr1132   2.063       .  S
O1117     Cr1132   1.939       .  S
O1117      C1118   1.252       .  A
C1118      O1119   1.276       .  A
C1118      C1317   1.475       .  S
O1119     Cr1133   2.049       .  S
O1120     Cr1133   1.961       .  S
O1120      C1121   1.253       .  A
C1121      C1272   1.484       .  S
O1122     Cr1131   1.941       .  S
O1122      C1130   1.255       .  A
O1123      C1124   1.271       .  A
C1124      O1125   1.253       .  A
C1124      C1331   1.477       .  S
O1126     Cr1132   2.047       .  S
O1126      C1127   1.276       .  A
C1127      O1128   1.257       .  A
C1127      C1286   1.489       .  S
O1128     Cr1133   1.954       .  S
O1129     Cr1133   2.063       .  S
O1129      C1130   1.283       .  A
C1130      C1457   1.496       .  S
Cr1131     O1134   1.757       .  S
Cr1132     O1134   1.754       .  S
Cr1133     O1134   1.756       .  S
O1135     Cr1153   1.955       .  S
O1135      C1143   1.252       .  A
O1136     Cr1153   2.055       .  S
O1136      C1137   1.276       .  A
C1137      O1138   1.250       .  A
C1137      C1230   1.475       .  S
O1138     Cr1154   1.935       .  S
O1139     Cr1154   2.059       .  S
O1139      C1140   1.274       .  A
C1140      O1141   1.246       .  A
C1140      C1303   1.483       .  S
O1141     Cr1155   1.934       .  S
O1142     Cr1155   2.023       .  S
O1142      C1143   1.269       .  A
C1143      C1756   1.487       .  S
O1144     Cr1153   2.065       .  S
O1144      C1152   1.284       .  A
O1145     Cr1153   1.946       .  S
O1145      C1146   1.254       .  A
C1146      O1147   1.276       .  A
C1146      C1258   1.474       .  S
O1147     Cr1154   2.045       .  S
O1148     Cr1154   1.952       .  S
C1149      O1150   1.273       .  A
C1149      C1216   1.482       .  S
O1151     Cr1155   1.939       .  S
O1151      C1152   1.254       .  A
C1152      C1387   1.498       .  S
Cr1153     O1156   1.761       .  S
Cr1154     O1156   1.755       .  S
Cr1155     O1156   1.751       .  S
O1157     Cr1175   1.956       .  S
O1157      C1165   1.252       .  A
O1158     Cr1175   2.058       .  S
O1158      C1159   1.278       .  A
C1159      O1160   1.252       .  A
C1159      C1219   1.474       .  S
O1160     Cr1176   1.939       .  S
O1161     Cr1176   2.065       .  S
O1161      C1162   1.276       .  A
C1162      O1163   1.246       .  A
C1162      C1202   1.476       .  S
O1163     Cr1177   1.942       .  S
O1164     Cr1177   2.026       .  S
O1164      C1165   1.270       .  A
C1165      C1289   1.481       .  S
O1166     Cr1175   2.073       .  S
O1166      C1174   1.285       .  A
O1167     Cr1175   1.954       .  S
O1167      C1168   1.257       .  A
C1168      O1169   1.277       .  A
C1168      C1275   1.490       .  S
O1169     Cr1176   2.052       .  S
O1170     Cr1176   1.948       .  S
O1170      C1171   1.253       .  A
C1171      O1172   1.274       .  A
C1171      C1233   1.476       .  S
O1172     Cr1177   2.048       .  S
O1173     Cr1177   1.944       .  S
O1173      C1174   1.253       .  A
C1174      C1359   1.506       .  S
Cr1175     O1178   1.759       .  S
Cr1176     O1178   1.757       .  S
Cr1177     O1178   1.754       .  S
O1179     Cr1197   2.026       .  S
O1179      C1187   1.271       .  A
O1180     Cr1197   1.943       .  S
O1180      C1181   1.247       .  A
C1181      O1182   1.275       .  A
C1181      C1205   1.472       .  S
O1182     Cr1198   2.055       .  S
O1183     Cr1198   1.943       .  S
O1183      C1184   1.252       .  A
C1184      O1185   1.277       .  A
C1184      C1328   1.483       .  S
O1185     Cr1199   2.059       .  S
O1186     Cr1199   1.955       .  S
O1186      C1187   1.253       .  A
C1187      C1261   1.491       .  S
O1188     Cr1197   1.948       .  S
O1188      C1196   1.254       .  A
O1189     Cr1197   2.045       .  S
O1189      C1190   1.274       .  A
C1190      O1191   1.254       .  A
C1190      C1314   1.476       .  S
O1191     Cr1198   1.950       .  S
O1192     Cr1198   2.047       .  S
O1192      C1193   1.276       .  A
C1193      O1194   1.256       .  A
C1193      C1247   1.477       .  S
O1194     Cr1199   1.949       .  S
O1195     Cr1199   2.062       .  S
O1195      C1196   1.283       .  A
C1196      C1345   1.498       .  S
Cr1197     O1200   1.754       .  S
Cr1198     O1200   1.756       .  S
Cr1199     O1200   1.758       .  S
C1201      C1202   1.402       .  A
C1201      C1206   1.405       .  A
C1201      H1208   1.089       .  S
C1202      C1203   1.416       .  A
C1203      C1204   1.398       .  A
C1203      N1210   1.430       .  S
C1204      C1205   1.398       .  A
C1204      H1209   1.089       .  S
C1205      C1206   1.418       .  A
C1206      N1207   1.437       .  S
N1207      O1211   1.263       .  A
N1207      O1212   1.263       .  A
N1210      O1214   1.262       .  A
N1210      O1213   1.262       .  A
C1215      C1216   1.413       .  A
C1215      C1220   1.403       .  A
C1215      H1222   1.083   1_655  S
C1216      C1217   1.406       .  A
C1217      C1218   1.401       .  A
C1217      N1224   1.428       .  S
C1218      C1219   1.408       .  A
C1218      H1223   1.084       .  S
C1219      C1220   1.401       .  A
C1220      N1221   1.428       .  S
N1221      O1225   1.261       .  A
N1221      O1226   1.262       .  A
N1224      O1228   1.262       .  A
N1224      O1227   1.262       .  A
C1229      C1230   1.411       .  A
C1229      C1234   1.399       .  A
C1229      H1236   1.084       .  S
C1230      C1231   1.402       .  A
C1231      C1232   1.402       .  A
C1231      N1238   1.428       .  S
C1232      C1233   1.412       .  A
C1232      H1237   1.084       .  S
C1233      C1234   1.402       .  A
C1234      N1235   1.428       .  S
N1235      O1239   1.261       .  A
N1235      O1240   1.262       .  A
N1238      O1242   1.262       .  A
N1238      O1241   1.262       .  A
C1243      C1244   1.413       .  A
C1243      C1248   1.401   1_565  A
C1243      H1762   1.086       .  S
C1244      C1655   1.487       .  S
C1244      C1245   1.408   1_565  A
C1245      C1246   1.401       .  A
C1245      N1252   1.428       .  S
C1246      C1247   1.408       .  A
C1246      H1251   1.086       .  S
C1247      C1248   1.402       .  A
C1248      N1249   1.428       .  S
N1249      O1253   1.262       .  A
N1249      O1254   1.262       .  A
H1250      C1755   1.086       .  S
N1252      O1256   1.262       .  A
N1252      O1255   1.262       .  A
C1257      C1258   1.392       .  A
C1257      C1262   1.399       .  A
C1257      H1264   1.084       .  S
C1258      C1259   1.415       .  A
C1259      C1260   1.402       .  A
C1259      N1266   1.429       .  S
C1260      C1261   1.401       .  A
C1260      H1265   1.083       .  S
C1261      C1262   1.422       .  A
C1262      N1263   1.424       .  S
N1263      O1267   1.262       .  A
N1263      O1268   1.261       .  A
N1266      O1270   1.262       .  A
N1266      O1269   1.261       .  A
C1271      C1272   1.410       .  A
C1271      C1788   1.404   1_545  A
C1271      H1278   1.085       .  S
C1272      C1785   1.404   1_545  A
C1273      C1784   1.404       .  A
C1273      C1274   1.404       .  A
C1273      N1280   1.429       .  S
C1274      C1275   1.413       .  A
C1274      H1279   1.085       .  S
C1275      C1276   1.408       .  A
C1276      C1783   1.403       .  A
C1276      N1277   1.428       .  S
N1277      O1793   1.262       .  A
N1277      O1282   1.262       .  A
N1280      O1284   1.262       .  A
N1280      O1283   1.262       .  A
O1281      N1789   1.262       .  A
C1285      C1286   1.413       .  A
C1285      C1290   1.404       .  A
C1285      H1292   1.083       .  S
C1286      C1287   1.408       .  A
C1287      C1288   1.402       .  A
C1287      N1294   1.429       .  S
C1288      C1289   1.410       .  A
C1288      H1293   1.083       .  S
C1289      C1290   1.405       .  A
C1290      N1291   1.432       .  S
N1291      O1295   1.262       .  A
N1291      O1296   1.262       .  A
N1294      O1298   1.262       .  A
N1294      O1297   1.262       .  A
C1299      C1300   1.415   1_565  A
C1299      C1816   1.400   1_655  A
C1299      H1818   1.086       .  S
C1301      C1302   1.400       .  A
C1301      N1308   1.435       .  S
C1302      C1815   1.412   1_545  A
C1302      H1307   1.086       .  S
C1303      C1814   1.412       .  A
C1304      C1811   1.401   1_455  A
C1304      N1305   1.435   1_455  S
N1305      O1309   1.262   1_655  A
N1305      O1310   1.262       .  A
H1306      C1811   1.086       .  S
N1308      O1312   1.262       .  A
N1308      O1311   1.262       .  A
C1313      C1314   1.410       .  A
C1313      C1318   1.400       .  A
C1313      H1320   1.084       .  S
C1314      C1315   1.403       .  A
C1315      C1316   1.400       .  A
C1315      N1322   1.428       .  S
C1316      C1317   1.410       .  A
C1316      H1321   1.085       .  S
C1317      C1318   1.402       .  A
C1318      N1319   1.428       .  S
N1319      O1323   1.262       .  A
N1319      O1324   1.262       .  A
N1322      O1326   1.261       .  A
N1322      O1325   1.262       .  A
C1327      C1328   1.413       .  A
C1327      C1332   1.400       .  A
C1327      H1334   1.084       .  S
C1328      C1329   1.412       .  A
C1329      C1330   1.405       .  A
C1329      N1336   1.436       .  S
C1330      C1331   1.408       .  A
C1330      H1335   1.084       .  S
C1331      C1332   1.401       .  A
C1332      N1333   1.429       .  S
N1333      O1337   1.262       .  A
N1333      O1338   1.262       .  A
N1336      O1340   1.263       .  A
N1336      O1339   1.262       .  A
C1341      C1342   1.400       .  A
C1341      C1346   1.406       .  A
C1341      H1348   1.086       .  S
C1342      C1343   1.428       .  A
C1343      C1344   1.404       .  A
C1343      N1350   1.429       .  S
C1344      C1345   1.398       .  A
C1344      H1349   1.087       .  S
C1345      C1346   1.423       .  A
C1346      N1347   1.428       .  S
N1347      O1351   1.262       .  A
N1347      O1352   1.262       .  A
N1350      O1354   1.262       .  A
N1350      O1353   1.261       .  A
C1355      C1356   1.398       .  A
C1355      C1360   1.404       .  A
C1355      H1362   1.086       .  S
C1356      C1357   1.425       .  A
C1357      C1358   1.409       .  A
C1357      N1364   1.429       .  S
C1358      C1359   1.402       .  A
C1358      H1363   1.085       .  S
C1359      C1360   1.427       .  A
C1360      N1361   1.428       .  S
N1361      O1365   1.262       .  A
N1361      O1366   1.261       .  A
N1364      O1368   1.262       .  A
N1364      O1367   1.262       .  A
C1369      C1370   1.401   1_556  A
C1369      C1374   1.400       .  A
C1369      H1376   1.086       .  S
C1370      C1371   1.416       .  A
C1371      C1372   1.399       .  A
C1371      N1378   1.430       .  S
C1372      C1373   1.400   1_554  A
C1372      H1377   1.086       .  S
C1373      C1374   1.415       .  A
C1374      N1375   1.431       .  S
N1375      O1379   1.262       .  A
N1375      O1380   1.262       .  A
N1378      O1382   1.262       .  A
N1378      O1381   1.262       .  A
C1383      C1384   1.398       .  A
C1383      C1388   1.401       .  A
C1383      H1390   1.086       .  S
C1385      C1386   1.406       .  A
C1385      N1392   1.430       .  S
C1386      C1387   1.401       .  A
C1386      H1391   1.086       .  S
C1388      N1389   1.430       .  S
N1389      O1393   1.262       .  A
N1389      O1394   1.262       .  A
N1392      O1396   1.262       .  A
N1392      O1395   1.262       .  A
C1397      C1398   1.406       .  A
C1397      C1402   1.405   1_556  A
C1397      H1404   1.086       .  S
C1398      C1399   1.404       .  A
C1399      C1400   1.403   1_556  A
C1399      N1406   1.431       .  S
C1400      C1401   1.413       .  A
C1400      H1405   1.085       .  S
C1401      C1402   1.412       .  A
C1402      N1403   1.430       .  S
N1403      O1407   1.262       .  A
N1403      O1408   1.262       .  A
N1406      O1410   1.262       .  A
N1406      O1409   1.262       .  A
C1411      C1412   1.412   1_556  A
C1411      C1416   1.399       .  A
C1411      H1418   1.086       .  S
C1412      C1413   1.411       .  A
C1413      C1414   1.405   1_554  A
C1413      N1420   1.435       .  S
C1414      C1415   1.408       .  A
C1414      H1419   1.086   1_556  S
C1415      C1416   1.401       .  A
C1416      N1417   1.428       .  S
N1417      O1421   1.262       .  A
N1417      O1422   1.262       .  A
N1420      O1424   1.262       .  A
N1420      O1423   1.263       .  A
C1425      C1426   1.403   1_545  A
C1425      C1430   1.404       .  A
C1425      H1432   1.083       .  S
C1426      C1567   1.498       .  S
C1426      C1427   1.424       .  A
C1427      C1428   1.404   1_565  A
C1427      N1946   1.427       .  S
C1428      C1429   1.395       .  A
C1428      H1433   1.083       .  S
C1429      C1430   1.414       .  A
C1430      N1431   1.429       .  S
N1431      O1435   1.261       .  A
N1431      O1436   1.262       .  A
N1434      C1939   1.427       .  S
N1434      O1438   1.262       .  A
N1434      O1437   1.262       .  A
C1439      C1440   1.411       .  A
C1439      C1444   1.401       .  A
C1439      H1446   1.088       .  S
C1440      C1441   1.405       .  A
C1441      C1442   1.401       .  A
C1441      N1448   1.430       .  S
C1442      C1443   1.410       .  A
C1442      H1447   1.089       .  S
C1443      C1444   1.404       .  A
C1444      N1445   1.428       .  S
N1445      O1449   1.262       .  A
N1445      O1450   1.262       .  A
N1448      O1452   1.262       .  A
N1448      O1451   1.262       .  A
C1453      C1458   1.404       .  A
C1453      H1460   1.084       .  S
C1454      C1455   1.407       .  A
C1455      C1456   1.405       .  A
C1455      N1462   1.428       .  S
C1456      H1461   1.084       .  S
C1457      C1458   1.407       .  A
C1458      N1459   1.429       .  S
N1459      O1463   1.262       .  A
N1459      O1464   1.262       .  A
N1462      O1466   1.262       .  A
N1462      O1465   1.262       .  A
C1467      C1468   1.417       .  A
C1467      C1984   1.398   1_545  A
C1467      H1474   1.085   1_545  S
C1468      C1469   1.403   1_556  A
C1470      C1983   1.417   1_545  A
C1470      H1475   1.086       .  S
C1471      C1982   1.417       .  A
C1472      C1979   1.398       .  A
C1472      N1473   1.434       .  S
N1473      O1477   1.262       .  A
N1473      O1478   1.262       .  A
N1476      O1479   1.261   1_455  A
C1481      C1482   1.410       .  A
C1481      C1486   1.401       .  A
C1481      H1488   1.089       .  S
C1482      C1483   1.404       .  A
C1483      C1484   1.401       .  A
C1483      N1490   1.428       .  S
C1484      C1485   1.411       .  A
C1484      H1489   1.090       .  S
C1485      C1486   1.407       .  A
C1486      N1487   1.428       .  S
N1487      O1491   1.262       .  A
N1487      O1492   1.262       .  A
N1490      O1494   1.262       .  A
N1490      O1493   1.262       .  A
C1495      C1496   1.400       .  A
C1495      C1500   1.401       .  A
C1495      H1502   1.087       .  S
C1496      C1497   1.423       .  A
C1497      C1498   1.404       .  A
C1497      N1504   1.429       .  S
C1498      C2011   1.397       .  A
C1498      H2015   1.087       .  S
C1499      C2010   1.397   1_545  A
C1499      C2012   1.416       .  A
C1500      C2011   1.416       .  A
C1500      N1501   1.429       .  S
N1501      O1505   1.262       .  A
N1501      O2018   1.261       .  A
H1503      C2010   1.087       .  S
N1504      O1508   1.262       .  A
N1504      O1507   1.262       .  A
O1506      N2013   1.261       .  A
C1509      C1510   1.411   1_554  A
C1509      C1514   1.399       .  A
C1509      H1516   1.086       .  S
C1510      C1511   1.407       .  A
C1511      C1512   1.403       .  A
C1511      N1518   1.432       .  S
C1512      C1513   1.409   1_556  A
C1512      H1517   1.086       .  S
C1513      C1514   1.401       .  A
C1514      N1515   1.428       .  S
N1515      O1519   1.262       .  A
N1515      O1520   1.262       .  A
N1518      O1522   1.262       .  A
N1518      O1521   1.262       .  A
C1523      C1524   1.414       .  A
C1523      C1528   1.404   1_556  A
C1523      H1530   1.083       .  S
C1524      C1525   1.409       .  A
C1525      C1526   1.401       .  A
C1525      N1532   1.429       .  S
C1526      C1527   1.407   1_556  A
C1526      H1531   1.084       .  S
C1527      C1528   1.403       .  A
C1528      N1529   1.431       .  S
N1529      O1533   1.262       .  A
N1529      O1534   1.262       .  A
N1532      O1536   1.262       .  A
N1532      O1535   1.262       .  A
O1537     Cr1555   2.027       .  S
O1537      C1545   1.270       .  A
O1538     Cr1555   1.926       .  S
O1538      C1539   1.242       .  A
C1539      O1540   1.277       .  A
C1539      C1980   1.484       .  S
O1540     Cr1556   2.071       .  S
O1541     Cr1556   1.941       .  S
O1541      C1542   1.253       .  A
C1542      O1543   1.275       .  A
C1542      C2022   1.479       .  S
O1543     Cr1557   2.051       .  S
O1544     Cr1557   1.964       .  S
O1544      C1545   1.252       .  A
C1545      C2011   1.481       .  S
O1546     Cr1555   1.940       .  S
O1546      C1554   1.255       .  A
O1547      C1548   1.274       .  A
C1548      C2036   1.489       .  S
O1549     Cr1556   1.953       .  S
O1550     Cr1556   2.049       .  S
O1550      C1551   1.278       .  A
C1551      O1552   1.257       .  A
C1551      C1994   1.480       .  S
O1552     Cr1557   1.948       .  S
O1553     Cr1557   2.067       .  S
O1553      C1554   1.284       .  A
C1554      C1966   1.498       .  S
Cr1555     O1558   1.749       .  S
Cr1556     O1558   1.754       .  S
Cr1557     O1558   1.756       .  S
O1559     Cr1577   1.964       .  S
O1559      C1567   1.254       .  A
O1560     Cr1577   2.055       .  S
O1560      C1561   1.275       .  A
C1561      O1562   1.253       .  A
C1561      C1924   1.484       .  S
O1562     Cr1578   1.945       .  S
O1563     Cr1578   2.065       .  S
O1563      C1564   1.277       .  A
C1564      O1565   1.243       .  A
C1564      C1983   1.484       .  S
O1565     Cr1579   1.934       .  S
O1566     Cr1579   2.024       .  S
O1566      C1567   1.271       .  A
O1568     Cr1577   2.054       .  S
O1568      C1576   1.283       .  A
O1569     Cr1577   1.947       .  S
O1569      C1570   1.255       .  A
C1570      O1571   1.277       .  A
C1570      C1952   1.481       .  S
O1571     Cr1578   2.050       .  S
O1572     Cr1578   1.956       .  S
C1573      O1574   1.275       .  A
C1573      C1913   1.495       .  S
O1575     Cr1579   1.949       .  S
O1575      C1576   1.256       .  A
C1576      C1896   1.496       .  S
Cr1577     O1580   1.755       .  S
Cr1578     O1580   1.754       .  S
Cr1579     O1580   1.752       .  S
O1581     Cr1599   1.959       .  S
O1581      C1589   1.254       .  A
O1582     Cr1599   2.058       .  S
O1582      C1583   1.276       .  A
C1583      O1584   1.252       .  A
C1583      C1910   1.475       .  S
O1584     Cr1600   1.950       .  S
O1585     Cr1600   2.052       .  S
O1585      C1586   1.274       .  A
C1586      O1587   1.247       .  A
C1586      C1885   1.473       .  S
O1587     Cr1601   1.947       .  S
O1588     Cr1601   2.022       .  S
O1588      C1589   1.269       .  A
C1589      C1997   1.485       .  S
O1590     Cr1599   2.064       .  S
O1590      C1598   1.283       .  A
O1591     Cr1599   1.956       .  S
O1591      C1592   1.257       .  A
C1592      O1593   1.278       .  A
C1592      C2008   1.490       .  S
O1593     Cr1600   2.048       .  S
O1594     Cr1600   1.954       .  S
O1594      C1595   1.256       .  A
C1595      O1596   1.273       .  A
C1595      C1927   1.477       .  S
O1596     Cr1601   2.042       .  S
O1597     Cr1601   1.955       .  S
O1597      C1598   1.255       .  A
C1598      C1868   1.504       .  S
Cr1599     O1602   1.760       .  S
Cr1600     O1602   1.758       .  S
Cr1601     O1602   1.759       .  S
O1603     Cr1621   2.024       .  S
O1603      C1611   1.268       .  A
O1604     Cr1621   1.943       .  S
O1604      C1605   1.246       .  A
C1605      O1606   1.275       .  A
C1605      C1882   1.475       .  S
O1606     Cr1622   2.058       .  S
O1607     Cr1622   1.942       .  S
O1607      C1608   1.251       .  A
C1608      O1609   1.276       .  A
C1608      C2039   1.472       .  S
O1609     Cr1623   2.054       .  S
O1610     Cr1623   1.953       .  S
O1610      C1611   1.251       .  A
C1611      C1955   1.481       .  S
O1612     Cr1621   1.941       .  S
O1612      C1620   1.253       .  A
O1613     Cr1621   2.043       .  S
O1613      C1614   1.273       .  A
C1614      O1615   1.255       .  A
C1614      C2025   1.475       .  S
O1615     Cr1622   1.952       .  S
O1616     Cr1622   2.051       .  S
O1616      C1617   1.277       .  A
C1617      O1618   1.258       .  A
C1617      C1941   1.482       .  S
O1618     Cr1623   1.957       .  S
O1619     Cr1623   2.072       .  S
O1619      C1620   1.285       .  A
C1620      C1854   1.503       .  S
Cr1621     O1624   1.757       .  S
Cr1622     O1624   1.758       .  S
Cr1623     O1624   1.762       .  S
O1625     Cr1643   2.025       .  S
O1625      C1633   1.269       .  A
O1626     Cr1643   1.934       .  S
O1626      C1627   1.247       .  A
C1627      O1628   1.276       .  A
C1627      C1812   1.485       .  S
O1628     Cr1644   2.063       .  S
O1629     Cr1644   1.939       .  S
O1629      C1630   1.252       .  A
C1630      O1631   1.276       .  A
C1630      C1829   1.475       .  S
O1631     Cr1645   2.049       .  S
O1632     Cr1645   1.961       .  S
O1632      C1633   1.253       .  A
C1633      C1784   1.484       .  S
O1634     Cr1643   1.940       .  S
O1634      C1642   1.255       .  A
O1635      C1636   1.271       .  A
C1636      O1637   1.253       .  A
C1636      C1843   1.477       .  S
O1638     Cr1644   2.047       .  S
O1638      C1639   1.276       .  A
C1639      O1640   1.257       .  A
C1639      C1798   1.489       .  S
O1640     Cr1645   1.954       .  S
O1641     Cr1645   2.063       .  S
O1641      C1642   1.283       .  A
C1642      C1969   1.496       .  S
Cr1643     O1646   1.757       .  S
Cr1644     O1646   1.754       .  S
Cr1645     O1646   1.756       .  S
O1647     Cr1665   1.955       .  S
O1647      C1655   1.252       .  A
O1648     Cr1665   2.056       .  S
O1648      C1649   1.277       .  A
C1649      O1650   1.250       .  A
C1649      C1742   1.476       .  S
O1650     Cr1666   1.935       .  S
O1651     Cr1666   2.058       .  S
O1651      C1652   1.274       .  A
C1652      O1653   1.246       .  A
C1652      C1815   1.483       .  S
O1653     Cr1667   1.934       .  S
O1654     Cr1667   2.023       .  S
O1654      C1655   1.269       .  A
O1656     Cr1665   2.065       .  S
O1656      C1664   1.284       .  A
O1657     Cr1665   1.946       .  S
O1657      C1658   1.254       .  A
C1658      O1659   1.276       .  A
C1658      C1770   1.474       .  S
O1659     Cr1666   2.045       .  S
O1660     Cr1666   1.952       .  S
C1661      O1662   1.274       .  A
C1661      C1728   1.483       .  S
O1663     Cr1667   1.939       .  S
O1663      C1664   1.254       .  A
C1664      C1899   1.498       .  S
Cr1665     O1668   1.760       .  S
Cr1666     O1668   1.754       .  S
Cr1667     O1668   1.751       .  S
O1669     Cr1687   1.957       .  S
O1669      C1677   1.252       .  A
O1670     Cr1687   2.058       .  S
O1670      C1671   1.278       .  A
C1671      O1672   1.252       .  A
C1671      C1731   1.474       .  S
O1672     Cr1688   1.940       .  S
O1673     Cr1688   2.066       .  S
O1673      C1674   1.276       .  A
C1674      O1675   1.246       .  A
C1674      C1714   1.476       .  S
O1675     Cr1689   1.942       .  S
O1676     Cr1689   2.026       .  S
O1676      C1677   1.270       .  A
C1677      C1801   1.482       .  S
O1678     Cr1687   2.074       .  S
O1678      C1686   1.285       .  A
O1679     Cr1687   1.954       .  S
O1679      C1680   1.257       .  A
C1680      O1681   1.277       .  A
C1680      C1787   1.490       .  S
O1681     Cr1688   2.053       .  S
O1682     Cr1688   1.948       .  S
O1682      C1683   1.253       .  A
C1683      O1684   1.274       .  A
C1683      C1745   1.475       .  S
O1684     Cr1689   2.047       .  S
O1685     Cr1689   1.944       .  S
O1685      C1686   1.253       .  A
C1686      C1871   1.507       .  S
Cr1687     O1690   1.759       .  S
Cr1688     O1690   1.757       .  S
Cr1689     O1690   1.754       .  S
O1691     Cr1709   2.027       .  S
O1691      C1699   1.271       .  A
O1692     Cr1709   1.944       .  S
O1692      C1693   1.247       .  A
C1693      O1694   1.275       .  A
C1693      C1717   1.472       .  S
O1694     Cr1710   2.056       .  S
O1695     Cr1710   1.943       .  S
O1695      C1696   1.252       .  A
C1696      O1697   1.277       .  A
C1696      C1840   1.483       .  S
O1697     Cr1711   2.059       .  S
O1698     Cr1711   1.955       .  S
O1698      C1699   1.252       .  A
C1699      C1773   1.491       .  S
O1700     Cr1709   1.949       .  S
O1700      C1708   1.255       .  A
O1701     Cr1709   2.046       .  S
O1701      C1702   1.274       .  A
C1702      O1703   1.254       .  A
C1702      C1826   1.476       .  S
O1703     Cr1710   1.950       .  S
O1704     Cr1710   2.047       .  S
O1704      C1705   1.276       .  A
C1705      O1706   1.256       .  A
C1705      C1759   1.477       .  S
O1706     Cr1711   1.950       .  S
O1707     Cr1711   2.063       .  S
O1707      C1708   1.283       .  A
C1708      C1857   1.499       .  S
Cr1709     O1712   1.754       .  S
Cr1710     O1712   1.756       .  S
Cr1711     O1712   1.759       .  S
C1713      C1714   1.402       .  A
C1713      C1718   1.405       .  A
C1713      H1720   1.089       .  S
C1714      C1715   1.416       .  A
C1715      C1716   1.398       .  A
C1715      N1722   1.430       .  S
C1716      C1717   1.398       .  A
C1716      H1721   1.089       .  S
C1717      C1718   1.418       .  A
C1718      N1719   1.437       .  S
N1719      O1723   1.263       .  A
N1719      O1724   1.263       .  A
N1722      O1726   1.262       .  A
N1722      O1725   1.262       .  A
C1727      C1728   1.413       .  A
C1727      C1732   1.403       .  A
C1727      H1734   1.083       .  S
C1728      C1729   1.407       .  A
C1729      C1730   1.401       .  A
C1729      N1736   1.428       .  S
C1730      C1731   1.408       .  A
C1730      H1735   1.084       .  S
C1731      C1732   1.401       .  A
C1732      N1733   1.428       .  S
N1733      O1737   1.261       .  A
N1733      O1738   1.262       .  A
N1736      O1740   1.262       .  A
N1736      O1739   1.262       .  A
C1741      C1742   1.411       .  A
C1741      C1746   1.398       .  A
C1741      H1748   1.084       .  S
C1742      C1743   1.402       .  A
C1743      C1744   1.402       .  A
C1743      N1750   1.428       .  S
C1744      C1745   1.411       .  A
C1744      H1749   1.084       .  S
C1745      C1746   1.401       .  A
C1746      N1747   1.428       .  S
N1747      O1751   1.261       .  A
N1747      O1752   1.262       .  A
N1750      O1754   1.261       .  A
N1750      O1753   1.262       .  A
C1755      C1756   1.413       .  A
C1755      C1760   1.401       .  A
C1756      C1757   1.408       .  A
C1757      C1758   1.402       .  A
C1757      N1764   1.428       .  S
C1758      C1759   1.408       .  A
C1758      H1763   1.087       .  S
C1759      C1760   1.402       .  A
C1760      N1761   1.428       .  S
N1761      O1765   1.262       .  A
N1761      O1766   1.262       .  A
N1764      O1768   1.262       .  A
N1764      O1767   1.262       .  A
C1769      C1770   1.392       .  A
C1769      C1774   1.399       .  A
C1769      H1776   1.084       .  S
C1770      C1771   1.415       .  A
C1771      C1772   1.402       .  A
C1771      N1778   1.429       .  S
C1772      C1773   1.401       .  A
C1772      H1777   1.083       .  S
C1773      C1774   1.422       .  A
C1774      N1775   1.424       .  S
N1775      O1779   1.262       .  A
N1775      O1780   1.261       .  A
N1778      O1782   1.262       .  A
N1778      O1781   1.261       .  A
C1783      C1784   1.410       .  A
C1783      H1790   1.085       .  S
C1785      C1786   1.404       .  A
C1785      N1792   1.429       .  S
C1786      C1787   1.413       .  A
C1786      H1791   1.085       .  S
C1787      C1788   1.408       .  A
C1788      N1789   1.428       .  S
N1789      O1794   1.262       .  A
N1792      O1796   1.262       .  A
N1792      O1795   1.262       .  A
C1797      C1798   1.413       .  A
C1797      C1802   1.404       .  A
C1797      H1804   1.083       .  S
C1798      C1799   1.408       .  A
C1799      C1800   1.403       .  A
C1799      N1806   1.429       .  S
C1800      C1801   1.410       .  A
C1800      H1805   1.083       .  S
C1801      C1802   1.405       .  A
C1802      N1803   1.432       .  S
N1803      O1807   1.262       .  A
N1803      O1808   1.262       .  A
N1806      O1810   1.262       .  A
N1806      O1809   1.262       .  A
C1811      C1812   1.415       .  A
C1813      C1814   1.400       .  A
C1813      N1820   1.435       .  S
C1814      H1819   1.086       .  S
C1816      N1817   1.435   1_455  S
N1817      O1821   1.262   1_655  A
N1817      O1822   1.262       .  A
N1820      O1824   1.262       .  A
N1820      O1823   1.262       .  A
C1825      C1826   1.411       .  A
C1825      C1830   1.401       .  A
C1825      H1832   1.084       .  S
C1826      C1827   1.403       .  A
C1827      C1828   1.400       .  A
C1827      N1834   1.428       .  S
C1828      C1829   1.410       .  A
C1828      H1833   1.085       .  S
C1829      C1830   1.402       .  A
C1830      N1831   1.428       .  S
N1831      O1835   1.262       .  A
N1831      O1836   1.262       .  A
N1834      O1838   1.261       .  A
N1834      O1837   1.262       .  A
C1839      C1840   1.413       .  A
C1839      C1844   1.400       .  A
C1839      H1846   1.084       .  S
C1840      C1841   1.412       .  A
C1841      C1842   1.405       .  A
C1841      N1848   1.436       .  S
C1842      C1843   1.408       .  A
C1842      H1847   1.084       .  S
C1843      C1844   1.401       .  A
C1844      N1845   1.428       .  S
N1845      O1849   1.262       .  A
N1845      O1850   1.262       .  A
N1848      O1852   1.263       .  A
N1848      O1851   1.262       .  A
C1853      C1854   1.400       .  A
C1853      C1858   1.406       .  A
C1853      H1860   1.086       .  S
C1854      C1855   1.428       .  A
C1855      C1856   1.404       .  A
C1855      N1862   1.430       .  S
C1856      C1857   1.398       .  A
C1856      H1861   1.087       .  S
C1857      C1858   1.423       .  A
C1858      N1859   1.428       .  S
N1859      O1863   1.262       .  A
N1859      O1864   1.262       .  A
N1862      O1866   1.262       .  A
N1862      O1865   1.261       .  A
C1867      C1868   1.398       .  A
C1867      C1872   1.404       .  A
C1867      H1874   1.086       .  S
C1868      C1869   1.425       .  A
C1869      C1870   1.410       .  A
C1869      N1876   1.428       .  S
C1870      C1871   1.402       .  A
C1870      H1875   1.085       .  S
C1871      C1872   1.427       .  A
C1872      N1873   1.428       .  S
N1873      O1877   1.262       .  A
N1873      O1878   1.261       .  A
N1876      O1880   1.262       .  A
N1876      O1879   1.262       .  A
C1881      C1882   1.401   1_556  A
C1881      C1886   1.401       .  A
C1881      H1888   1.086       .  S
C1882      C1883   1.416       .  A
C1883      C1884   1.399       .  A
C1883      N1890   1.430       .  S
C1884      C1885   1.400   1_554  A
C1884      H1889   1.086       .  S
C1885      C1886   1.415       .  A
C1886      N1887   1.431       .  S
N1887      O1891   1.262       .  A
N1887      O1892   1.262       .  A
N1890      O1894   1.262       .  A
N1890      O1893   1.262       .  A
C1895      C1896   1.398       .  A
C1895      C1900   1.401       .  A
C1895      H1902   1.086       .  S
C1897      C1898   1.406       .  A
C1897      N1904   1.430       .  S
C1898      C1899   1.401       .  A
C1898      H1903   1.086       .  S
C1900      N1901   1.430       .  S
N1901      O1905   1.262       .  A
N1901      O1906   1.262       .  A
N1904      O1908   1.262       .  A
N1904      O1907   1.262       .  A
C1909      C1910   1.406       .  A
C1909      C1914   1.406   1_556  A
C1909      H1916   1.086       .  S
C1910      C1911   1.404       .  A
C1911      C1912   1.403   1_556  A
C1911      N1918   1.430       .  S
C1912      C1913   1.412       .  A
C1912      H1917   1.085       .  S
C1913      C1914   1.413       .  A
C1914      N1915   1.430       .  S
N1915      O1919   1.262       .  A
N1915      O1920   1.262       .  A
N1918      O1922   1.262       .  A
N1918      O1921   1.262       .  A
C1923      C1924   1.412   1_556  A
C1923      C1928   1.400       .  A
C1923      H1930   1.086       .  S
C1924      C1925   1.411       .  A
C1925      C1926   1.406   1_554  A
C1925      N1932   1.435       .  S
C1926      C1927   1.408       .  A
C1926      H1931   1.086   1_556  S
C1927      C1928   1.401       .  A
C1928      N1929   1.428       .  S
N1929      O1933   1.262       .  A
N1929      O1934   1.262       .  A
N1932      O1936   1.262       .  A
N1932      O1935   1.263       .  A
C1937      C1938   1.403       .  A
C1937      C1942   1.404       .  A
C1937      H1944   1.083       .  S
C1938      C1939   1.424       .  A
C1939      C1940   1.405       .  A
C1940      C1941   1.396       .  A
C1940      H1945   1.083       .  S
C1941      C1942   1.414       .  A
C1942      N1943   1.429       .  S
N1943      O1947   1.261       .  A
N1943      O1948   1.262       .  A
N1946      O1950   1.262       .  A
N1946      O1949   1.262       .  A
C1951      C1952   1.411       .  A
C1951      C1956   1.402       .  A
C1951      H1958   1.088       .  S
C1952      C1953   1.404       .  A
C1953      C1954   1.401       .  A
C1953      N1960   1.429       .  S
C1954      C1955   1.410       .  A
C1954      H1959   1.090       .  S
C1955      C1956   1.405       .  A
C1956      N1957   1.428       .  S
N1957      O1961   1.262       .  A
N1957      O1962   1.262       .  A
N1960      O1964   1.262       .  A
N1960      O1963   1.262       .  A
C1965      C1970   1.404       .  A
C1965      H1972   1.084       .  S
C1966      C1967   1.407       .  A
C1967      C1968   1.404       .  A
C1967      N1974   1.428       .  S
C1968      H1973   1.084       .  S
C1969      C1970   1.407       .  A
C1970      N1971   1.429       .  S
N1971      O1975   1.262       .  A
N1971      O1976   1.262       .  A
N1974      O1978   1.262       .  A
N1974      O1977   1.262       .  A
C1979      C1980   1.417       .  A
C1979      H1986   1.085       .  S
C1980      C1981   1.403   1_556  A
C1982      H1987   1.086       .  S
C1984      N1985   1.434       .  S
N1985      O1989   1.262       .  A
N1985      O1990   1.262       .  A
N1988      O1991   1.261       .  A
C1993      C1994   1.410       .  A
C1993      C1998   1.402       .  A
C1993      H2000   1.089       .  S
C1994      C1995   1.403       .  A
C1995      C1996   1.401       .  A
C1995      N2002   1.428       .  S
C1996      C1997   1.410       .  A
C1996      H2001   1.091       .  S
C1997      C1998   1.407       .  A
C1998      N1999   1.428       .  S
N1999      O2003   1.262       .  A
N1999      O2004   1.262       .  A
N2002      O2006   1.262       .  A
N2002      O2005   1.262       .  A
C2007      C2008   1.400       .  A
C2007      C2012   1.401   1_565  A
C2007      H2014   1.087       .  S
C2008      C2009   1.422       .  A
C2009      C2010   1.404       .  A
C2009      N2016   1.429       .  S
C2012      N2013   1.429       .  S
N2013      O2017   1.262       .  A
N2016      O2020   1.262       .  A
N2016      O2019   1.262       .  A
C2021      C2022   1.411   1_554  A
C2021      C2026   1.399       .  A
C2021      H2028   1.086       .  S
C2022      C2023   1.407       .  A
C2023      C2024   1.403       .  A
C2023      N2030   1.432       .  S
C2024      C2025   1.409   1_556  A
C2024      H2029   1.086       .  S
C2025      C2026   1.401       .  A
C2026      N2027   1.428       .  S
N2027      O2031   1.262       .  A
N2027      O2032   1.262       .  A
N2030      O2034   1.262       .  A
N2030      O2033   1.262       .  A
C2035      C2036   1.414       .  A
C2035      C2040   1.404   1_556  A
C2035      H2042   1.083       .  S
C2036      C2037   1.409       .  A
C2037      C2038   1.402       .  A
C2037      N2044   1.429       .  S
C2038      C2039   1.406   1_556  A
C2038      H2043   1.084       .  S
C2039      C2040   1.403       .  A
C2040      N2041   1.431       .  S
N2041      O2045   1.262       .  A
N2041      O2046   1.262       .  A
N2044      O2048   1.262       .  A
N2044      O2047   1.262       .  A
