geometry optimzed in LAMMPS
_audit_creation_date              2020-12-01 
_audit_creation_method            'lammps2cif' 
_symmetry_space_group_name_H-M    'P1' 
_symmetry_Int_Tables_number       1 
_symmetry_cell_setting            triclinic 
loop_ 
_symmetry_equiv_pos_as_xyz 
  x,y,z 
_cell_length_a                    41.86019269 
_cell_length_b                    33.36068893934053 
_cell_length_c                    39.867041473128765 
_cell_angle_alpha                 90.1547698957985 
_cell_angle_beta                  99.8541115698242 
_cell_angle_gamma                 90.49229788807116 
loop_ 
_atom_site_label 
_atom_site_type_symbol 
_atom_site_fract_x 
_atom_site_fract_y 
_atom_site_fract_z 
_atom_site_charge 
O1          O  0.16587539  0.56100961  0.34252623    -0.82300
C2          C  0.05789470  0.65276860  0.34583256     0.97100
O3          O  0.08343727  0.64250768  0.36512697    -0.71400
O4          O  0.12945659  0.59210838  0.38951871    -0.75000
Al5        Al  0.12437507  0.63322763  0.35311538     1.49000
C6          C  0.11794973  0.55646801  0.38890428     0.92300
O7          O  0.08078976  0.52604785  0.29849631    -0.81200
O8          O  0.09028970  0.57980781  0.25274287    -0.74800
Al9        Al  0.12204322  0.54919939  0.32040461     1.90100
O10         O  0.04883594  0.57714898  0.29989094    -0.73900
O11         O  0.10361914  0.65388467  0.27237101    -0.73700
O12         O  0.05696418  0.65252835  0.31392047    -0.79400
O13         O  0.12216552  0.68065977  0.32240856    -0.77600
O14         O  0.10837325  0.59939357  0.32020385    -1.13700
O15         O  0.16703383  0.62665614  0.34546730    -0.72900
C16         C  0.18156987  0.59363314  0.34834372     0.97800
C17         C  0.05253915  0.54078270  0.29378216     0.94200
Al18       Al  0.07746938  0.61491104  0.28720952     1.55600
O19         O  0.10853513  0.53875086  0.36115201    -0.77500
C20         C  0.11660282  0.68292887  0.28983645     0.98400
C21         C  0.11526570  0.55861670  0.25195356     0.93300
O22         O  0.13633834  0.55514838  0.27840318    -0.82800
O23         O  0.33331474  0.56167820  0.40810816    -0.82300
C24         C  0.44336384  0.65139290  0.40444264     0.97100
O25         O  0.41685116  0.64283014  0.38578809    -0.71400
O26         O  0.36940156  0.59425284  0.36114917    -0.75000
Al27       Al  0.37615373  0.63362754  0.39864690     1.49000
C28         C  0.38011727  0.55867613  0.36059735     0.92300
O29         O  0.41677075  0.52418506  0.44845338    -0.81200
O30         O  0.40911744  0.57935761  0.99941950    -0.74800
Al31       Al  0.37668345  0.54887808  0.42887342     1.90100
O32         O  0.45102973  0.57388787  0.44785733    -0.73900
O33         O  0.40083817  0.65250949  0.47980699    -0.73700
O34         O  0.44553610  0.64988460  0.43643729    -0.79400
O35         O  0.38019321  0.67923118  0.43053146    -0.77600
O36         O  0.39201650  0.59870661  0.43024994    -1.13700
O37         O  0.33340163  0.62728914  0.40708425    -0.72900
C38         C  0.31825031  0.59435287  0.40341669     0.97800
C39         C  0.44553228  0.53741870  0.45199156     0.94200
Al40       Al  0.42451174  0.61243217  0.46279409     1.55600
O41         O  0.38883702  0.53955756  0.38755179    -0.77500
C42         C  0.38719275  0.68133686  0.46297054     0.98400
C43         C  0.38426188  0.55715141  0.99943921     0.93300
O44         O  0.36393769  0.55394473  0.47173583    -0.82800
O45         O  0.36062929  0.45268482  0.22297240    -0.82300
C46         C  0.43990195  0.35579626  0.15617035     0.97100
O47         O  0.44137035  0.35708955  0.18810674    -0.71400
O48         O  0.44790243  0.43299370  0.20045405    -0.75000
Al49       Al  0.42047172  0.39460421  0.21428313     1.49000
C50         C  0.44344366  0.46932168  0.20610285     0.92300
O51         O  0.38722245  0.46898005  0.13950271    -0.81200
O52         O  0.33061557  0.38012304  0.15691136    -0.74800
Al53       Al  0.37428826  0.45867825  0.18061221     1.90100
O54         O  0.36765373  0.41434203  0.11208943    -0.73900
O55         O  0.37592051  0.32804490  0.18047972    -0.73700
O56         O  0.41407533  0.36520944  0.13703228    -0.79400
O57         O  0.39543547  0.35510259  0.23017129    -0.77600
O58         O  0.38893274  0.40885317  0.18137353    -1.13700
O59         O  0.40743699  0.42971884  0.24825991    -0.72900
C60         C  0.38218048  0.45023463  0.24915772     0.97800
C61         C  0.37861350  0.45017412  0.11212367     0.94200
Al62       Al  0.37321646  0.37423170  0.14910546     1.55600
O63         O  0.41498293  0.48323745  0.20175324    -0.77500
C64         C  0.38182034  0.32617398  0.21300794     0.98400
C65         C  0.31551709  0.41266056  0.15363999     0.93300
O66         O  0.33073731  0.44562111  0.15898957    -0.82800
O67         O  0.13426245  0.45129930  0.02921786    -0.82300
C68         C  0.05447130  0.35266306  0.09537286     0.97100
O69         O  0.05331517  0.35317179  0.06340998    -0.71400
O70         O  0.04598471  0.42845871  0.04899803    -0.75000
Al71       Al  0.07457503  0.39066449  0.03697170     1.49000
C72         C  0.05056417  0.46477614  0.04324629     0.92300
O73         O  0.10512633  0.46673551  0.11144465    -0.81200
O74         O  0.16373161  0.38009256  0.09578507    -0.74800
Al75       Al  0.11939779  0.45683354  0.07105931     1.90100
O76         O  0.12609822  0.41406494  0.13973862    -0.73900
O77         O  0.11878706  0.32567977  0.07262225    -0.73700
O78         O  0.08007283  0.36319949  0.11467221    -0.79400
O79         O  0.10056779  0.35194792  0.02255714    -0.77600
O80         O  0.10533960  0.40653025  0.07031901    -1.13700
O81         O  0.08790153  0.42664049  0.50123391    -0.72900
C82         C  0.11310738  0.44824341  0.50108081     0.97800
C83         C  0.11473211  0.44949417  0.13919960     0.94200
Al84       Al  0.12099239  0.37296588  0.10318599     1.55600
O85         O  0.07894873  0.47956194  0.04867316    -0.77500
C86         C  0.11390243  0.32364536  0.04011495     0.98400
C87         C  0.17839834  0.41333727  0.09936910     0.93300
O88         O  0.16279004  0.44564608  0.09388004    -0.82800
O89         O  0.38701832  0.95570384  0.02320939    -0.82300
C90         C  0.30618053  0.86240163  0.09234702     0.97100
O91         O  0.30475236  0.86240182  0.06039339    -0.71400
O92         O  0.29855090  0.93716919  0.04410574    -0.75000
Al93       Al  0.32632568  0.89789664  0.03299099     1.49000
C94         C  0.30355393  0.97320450  0.03772590     0.92300
O95         O  0.35861101  0.97691179  0.10545370    -0.81200
O96         O  0.41508461  0.88709815  0.09104505    -0.74800
Al97       Al  0.37246248  0.96422824  0.06493076     1.90100
O98         O  0.37856346  0.92395329  0.13435650    -0.73900
O99         O  0.36940301  0.83313740  0.07026086    -0.73700
O100        O  0.33175466  0.87357582  0.11138321    -0.79400
O101        O  0.35140886  0.85749649  0.01956089    -0.77600
O102        O  0.35741205  0.91435217  0.06569710    -1.13700
O103        O  0.33763676  0.92664312  0.50095302    -0.72900
C104        C  0.36278896  0.94832335  0.50057681     0.97800
C105        C  0.36745749  0.95947531  0.13332297     0.94200
Al106      Al  0.37264208  0.88170224  0.09922923     1.55600
O107        O  0.33218812  0.98727845  0.04183416    -0.77500
C108        C  0.36352083  0.82912167  0.03791811     0.98400
C109        C  0.43066208  0.91963734  0.09438993     0.93300
O110        O  0.41594013  0.95254182  0.08818038    -0.82800
O111        O  0.11461232  0.95419815  0.21891280    -0.82300
C112        C  0.19059576  0.85473063  0.15165413     0.97100
O113        O  0.19227364  0.85508651  0.18368711    -0.71400
O114        O  0.20136153  0.93044765  0.19624672    -0.75000
Al115      Al  0.17285289  0.89354976  0.21048499     1.49000
C116        C  0.19777276  0.96690223  0.20181584     0.92300
O117        O  0.14155715  0.96753823  0.13551539    -0.81200
O118        O  0.08223404  0.88182092  0.15474291    -0.74800
Al119      Al  0.12835964  0.95882067  0.17661094     1.90100
O120        O  0.11873217  0.91442661  0.10837801    -0.73900
O121        O  0.12739991  0.82751005  0.17732614    -0.73700
O122        O  0.16463540  0.86424548  0.13281427    -0.79400
O123        O  0.14702350  0.85512118  0.22677617    -0.77600
O124        O  0.14147325  0.90851123  0.17772833    -1.13700
O125        O  0.16079715  0.93003979  0.24485676    -0.72900
C126        C  0.13575360  0.95135333  0.24537083     0.97800
C127        C  0.13108119  0.94959974  0.10811842     0.94200
Al128      Al  0.12442519  0.87415902  0.14574732     1.55600
O129        O  0.16963724  0.98180966  0.19742180    -0.77500
C130        C  0.13396102  0.82566652  0.20989942     0.98400
C131        C  0.06812811  0.91515427  0.15098907     0.93300
O132        O  0.08442346  0.94742536  0.15525536    -0.82800
O133        O  0.08321727  0.05871049  0.40360481    -0.82300
C134        C  0.19126099  0.15340910  0.40708405     0.97100
O135        O  0.16635862  0.14276485  0.38670938    -0.71400
O136        O  0.12059201  0.09274714  0.35938675    -0.75000
Al137      Al  0.12514090  0.13232611  0.39705216     1.49000
C138        C  0.13271541  0.05783737  0.35895267     0.92300
O139        O  0.16736473  0.02456301  0.44878873    -0.81200
O140        O  0.15896911  0.07975810  0.99511650    -0.74800
Al141      Al  0.12668522  0.04698082  0.42659593     1.90100
O142        O  0.19938472  0.07703818  0.45121516    -0.73900
O143        O  0.14266863  0.15060461  0.47829563    -0.73700
O144        O  0.19126338  0.15236467  0.43886012    -0.79400
O145        O  0.12691139  0.17878277  0.42859853    -0.77600
O146        O  0.14019045  0.09767226  0.42919432    -1.13700
O147        O  0.08260711  0.12440396  0.40379957    -0.72900
C148        C  0.06781638  0.09138376  0.39905163     0.97800
C149        C  0.19545034  0.04022854  0.45518919     0.94200
Al150      Al  0.16987205  0.11312144  0.46358423     1.55600
O151        O  0.14176087  0.03918592  0.38609964    -0.77500
C152        C  0.13095072  0.18011011  0.46112496     0.98400
C153        C  0.13381760  0.05813891  0.99547771     0.93300
O154        O  0.11106338  0.04950653  0.46839175    -0.82800
O155        O  0.41471008  0.06019939  0.34058024    -0.82300
C156        C  0.30672227  0.14940560  0.34799974     0.97100
O157        O  0.33327117  0.14039130  0.36598801    -0.71400
O158        O  0.37966410  0.09036119  0.38808201    -0.75000
Al159      Al  0.37339320  0.13162091  0.35207267     1.49000
C160        C  0.36778614  0.05492428  0.38761652     0.92300
O161        O  0.33078895  0.02353296  0.29683016    -0.81200
O162        O  0.33765437  0.07934005  0.25203897    -0.74800
Al163      Al  0.37121555  0.04803399  0.31887078     1.90100
O164        O  0.29803004  0.07262656  0.30154612    -0.73900
O165        O  0.34758232  0.15360935  0.27219667    -0.73700
O166        O  0.30366085  0.14774292  0.31590387    -0.79400
O167        O  0.36940085  0.17897164  0.32184292    -0.77600
O168        O  0.35671131  0.09786341  0.31942970    -1.13700
O169        O  0.41583581  0.12570269  0.34258238    -0.72900
C170        C  0.43051661  0.09271429  0.34546190     0.97800
C171        C  0.30233254  0.03725855  0.29312290     0.94200
Al172      Al  0.32428285  0.11239255  0.28777884     1.55600
O173        O  0.35836055  0.03688293  0.35992513    -0.77500
C174        C  0.36116863  0.18235532  0.28957773     0.98400
C175        C  0.36344089  0.05994136  0.25035497     0.93300
O176        O  0.38465256  0.05573795  0.27665722    -0.82800
C177        C  0.22121515  0.16320453  0.39342498    -0.06000
C178        C  0.25149701  0.15845776  0.41428510    -0.33400
C179        C  0.27990939  0.15613951  0.40020243     0.35900
C180        C  0.27848459  0.15948037  0.36455723    -0.06300
C181        C  0.24852369  0.16804920  0.34421504    -0.33300
C182        C  0.22016458  0.17011561  0.35831004     0.35800
H183        H  0.25299378  0.15352383  0.44135062     0.16100
O184        O  0.30860925  0.14860825  0.42146387    -0.60800
H185        H  0.24667501  0.17125098  0.31691801     0.16100
O186        O  0.19126021  0.17655878  0.33707855    -0.60900
H187        H  0.18955784  0.20608935  0.33492773     0.43100
H188        H  0.30895497  0.11912940  0.42479341     0.43100
C189        C  0.03260361  0.09132515  0.38603547    -0.06000
C190        C  0.01549498  0.05484249  0.38095984    -0.33400
C191        C  0.48258468  0.05626400  0.36723578     0.35900
C192        C  0.46605947  0.09215803  0.35712637    -0.06300
C193        C  0.48341401  0.12852176  0.36102367    -0.33300
C194        C  0.01606994  0.12741067  0.37652617     0.35800
H195        H  0.02766648  0.02675834  0.38780765     0.16100
O196        O  0.46693490  0.01982033  0.36334659    -0.60800
H197        H  0.47142752  0.15647293  0.35322095     0.16100
O198        O  0.03165020  0.16390961  0.38032333    -0.60900
H199        H  0.02896219  0.17362658  0.40320264     0.43100
H200        H  0.45999012  0.01454201  0.38550392     0.43100
C201        C  0.27516919  0.01640173  0.27209061    -0.06000
C202        C  0.28179665  0.98823693  0.24808370    -0.33400
C203        C  0.25715482  0.97441318  0.22256529     0.35900
C204        C  0.22534010  0.98870448  0.22102744    -0.06300
C205        C  0.21889279  0.01735175  0.24461374    -0.33300
C206        C  0.24340085  0.03110164  0.27007310     0.35800
H207        H  0.30632080  0.97798562  0.24823104     0.16100
O208        O  0.26437819  0.94734393  0.19900032    -0.60800
H209        H  0.19441628  0.02776668  0.24449521     0.16100
O210        O  0.23596611  0.05870259  0.29309277    -0.60900
H211        H  0.23414489  0.08468687  0.28087851     0.43100
H212        H  0.26827571  0.92160309  0.21135466     0.43100
C213        C  0.13383960  0.97808087  0.27484802    -0.06000
C214        C  0.16127318  0.98272117  0.30029057    -0.33400
C215        C  0.16197087  0.01113897  0.32619676     0.35900
C216        C  0.13493529  0.03578330  0.32732077    -0.06300
C217        C  0.10770355  0.03199478  0.30165717    -0.33300
C218        C  0.10687669  0.00330205  0.27567972     0.35800
H219        H  0.18259362  0.96463095  0.29996628     0.16100
O220        O  0.18894701  0.01374059  0.35111572    -0.60800
H221        H  0.08639858  0.04986645  0.30270092     0.16100
O222        O  0.07951700  0.00028972  0.25132620    -0.60900
H223        H  0.06669658  0.97796686  0.25890069     0.43100
H224        H  0.20323053  0.03388263  0.34278042     0.43100
C225        C  0.13266979  0.97292853  0.07681970    -0.06000
C226        C  0.15712275  0.00248567  0.07874086    -0.33400
C227        C  0.15666584  0.03158214  0.05365521     0.35900
C228        C  0.13187794  0.03126222  0.02487750    -0.06300
C229        C  0.10772374  0.00096784  0.02235841    -0.33300
C230        C  0.10788049  0.97214963  0.04815824     0.35800
H231        H  0.17645541  0.00388535  0.10062201     0.16100
O232        O  0.18104576  0.05982355  0.05751891    -0.60800
H233        H  0.08871646  0.99938784  0.00022478     0.16100
O234        O  0.08335522  0.94419467  0.04545241    -0.60900
H235        H  0.06671162  0.95627800  0.05723656     0.43100
H236        H  0.17232987  0.08314349  0.06838363     0.43100
C237        C  0.27633805  0.99543584  0.01918894    -0.06000
C238        C  0.27953795  0.01728506  0.49934392    -0.33400
C239        C  0.25466044  0.03230984  0.47512980     0.35900
C240        C  0.22266009  0.01826048  0.47404205    -0.06300
C241        C  0.21839006  0.99832117  0.99942333    -0.33300
C242        C  0.24447038  0.98587018  0.02348207     0.35800
H243        H  0.30420207  0.02712554  0.49886160     0.16100
O244        O  0.26185801  0.06028411  0.45228404    -0.60800
H245        H  0.19397445  0.99159211  0.00350969     0.16100
O246        O  0.23867784  0.96371499  0.05080747    -0.60900
H247        H  0.23503791  0.98370164  0.06820215     0.43100
H248        H  0.26650391  0.08546108  0.46555536     0.43100
C249        C  0.36538453  0.03194960  0.41872704    -0.06000
C250        C  0.34080756  0.00259818  0.41651218    -0.33400
C251        C  0.34045321  0.97431493  0.44209196     0.35900
C252        C  0.36490033  0.97490507  0.47115518    -0.06300
C253        C  0.38896096  0.00531915  0.47401165    -0.33300
C254        C  0.38918799  0.03385129  0.44816298     0.35800
H255        H  0.32198090  0.00087408  0.39418625     0.16100
O256        O  0.31569231  0.94660806  0.43842742    -0.60800
H257        H  0.40753700  0.00733410  0.49650450     0.16100
O258        O  0.41360253  0.06198473  0.45118478    -0.60900
H259        H  0.40665614  0.08379696  0.46522453     0.43100
H260        H  0.32338518  0.92381050  0.42603549     0.43100
C261        C  0.36596268  0.98279269  0.16434205    -0.06000
C262        C  0.39351440  0.98667469  0.18956254    -0.33400
C263        C  0.39388364  0.01343407  0.21682179     0.35900
C264        C  0.36619681  0.03668803  0.21920900    -0.06300
C265        C  0.33875688  0.03271613  0.19362309    -0.33300
C266        C  0.33859518  0.00636312  0.16631398     0.35800
H267        H  0.41513048  0.96979250  0.18760592     0.16100
O268        O  0.42159138  0.01693402  0.24066309    -0.60800
H269        H  0.31691220  0.04933535  0.19509887     0.16100
O270        O  0.31114726  0.00289331  0.14207022    -0.60900
H271        H  0.31140587  0.02671272  0.12727862     0.43100
H272        H  0.42099861  0.99381304  0.25615056     0.43100
C273        C  0.27722856  0.85177802  0.10753465    -0.06000
C274        C  0.24677851  0.84865669  0.08649642    -0.33400
C275        C  0.21830417  0.84642972  0.10041635     0.35900
C276        C  0.21983733  0.84700455  0.13616681    -0.06300
C277        C  0.25039808  0.84676038  0.15710895    -0.33300
C278        C  0.27884957  0.84958118  0.14320654     0.35800
H279        H  0.24478213  0.85029001  0.05907486     0.16100
O280        O  0.18911596  0.84644491  0.07867980    -0.60800
H281        H  0.25235300  0.84711250  0.18455771     0.16100
O282        O  0.30802417  0.85167296  0.16493120    -0.60900
H283        H  0.31044413  0.88008475  0.17244162     0.43100
H284        H  0.18297455  0.81777663  0.07516761     0.43100
C285        C  0.46579539  0.91894743  0.10826721    -0.06000
C286        C  0.48251765  0.95488778  0.11819592    -0.33400
C287        C  0.01605225  0.95207233  0.12991215     0.35900
C288        C  0.03266239  0.91601646  0.13912118    -0.06300
C289        C  0.01546479  0.87958382  0.13419086    -0.33300
C290        C  0.48234640  0.88226242  0.11462187     0.35800
H291        H  0.47028774  0.98339187  0.11404446     0.16100
O292        O  0.03186782  0.98841107  0.13354051    -0.60800
H293        H  0.02757833  0.85142036  0.14086633     0.16100
O294        O  0.46724348  0.84620410  0.10563241    -0.60900
H295        H  0.46983412  0.84165754  0.08165293     0.43100
H296        H  0.03027477  0.99765499  0.15685641     0.43100
C297        C  0.12158651  0.28767806  0.02111941    -0.06000
C298        C  0.11825752  0.24927902  0.03417708    -0.33400
C299        C  0.12082865  0.21516053  0.01417428     0.35900
C300        C  0.12456267  0.21677967  0.48032298    -0.06300
C301        C  0.12580496  0.25468842  0.46557902    -0.33300
C302        C  0.12375989  0.28966181  0.48470677     0.35800
H303        H  0.11265884  0.24567045  0.05955111     0.16100
O304        O  0.11653979  0.17807177  0.02763431    -0.60800
H305        H  0.12929634  0.25732838  0.43936296     0.16100
O306        O  0.12571298  0.32603121  0.46915810    -0.60900
H307        H  0.14860602  0.33483971  0.47584660     0.43100
H308        H  0.13752356  0.17188579  0.04229586     0.43100
C309        C  0.36604395  0.21996265  0.27079745    -0.06000
C310        C  0.35721120  0.22035131  0.23491874    -0.33400
C311        C  0.36136429  0.25459788  0.21578777     0.35900
C312        C  0.37451980  0.28980719  0.23221352    -0.06300
C313        C  0.38233517  0.28987033  0.26819702    -0.33300
C314        C  0.37803896  0.25561687  0.28735839     0.35800
H315        H  0.34717352  0.19374306  0.22127138     0.16100
O316        O  0.35240941  0.25311780  0.18106976    -0.60800
H317        H  0.39218995  0.31659397  0.28179354     0.16100
O318        O  0.38597059  0.25741837  0.32216264    -0.60900
H319        H  0.36556066  0.26454913  0.33014863     0.43100
H320        H  0.37188763  0.24365470  0.17242112     0.43100
C321        C  0.21368476  0.41404049  0.11221433    -0.06000
C322        C  0.23055128  0.37767601  0.11571448    -0.33400
C323        C  0.26334406  0.37653232  0.13000085     0.35900
C324        C  0.28014980  0.41232472  0.14121625    -0.06300
C325        C  0.26327148  0.44868957  0.13785517    -0.33300
C326        C  0.23044381  0.44982181  0.12335185     0.35800
H327        H  0.21829931  0.34973073  0.10738490     0.16100
O328        O  0.27880858  0.34030496  0.13175899    -0.60800
H329        H  0.27561176  0.47659383  0.14611464     0.16100
O330        O  0.21494539  0.48601306  0.12096202    -0.60900
H331        H  0.21910482  0.49783339  0.09929820     0.43100
H332        H  0.27552016  0.32847476  0.15370692     0.43100
C333        C  0.46913249  0.34633404  0.14104388    -0.06000
C334        C  0.99832038  0.34195666  0.16030429    -0.33400
C335        C  0.02675009  0.34144016  0.14624632     0.35900
C336        C  0.02517962  0.34298468  0.11050934    -0.06300
C337        C  0.49562748  0.34053103  0.09119558    -0.33300
C338        C  0.46728085  0.34150722  0.10550401     0.35800
H339        H  0.00041531  0.34329350  0.18775134     0.16100
O340        O  0.05594980  0.34220204  0.16796253    -0.60800
H341        H  0.49333485  0.33856772  0.06375838     0.16100
O342        O  0.43786279  0.33912160  0.08423407    -0.60900
H343        H  0.43378331  0.36655036  0.07498351     0.43100
H344        H  0.06355785  0.31412003  0.16893096     0.43100
C345        C  0.38050894  0.71788459  0.48213700    -0.06000
C346        C  0.39546695  0.72276725  0.51651595    -0.33400
C347        C  0.38560138  0.75840419  0.03671526     0.35900
C348        C  0.36892231  0.79109540  0.02010959    -0.06300
C349        C  0.35628940  0.78749367  0.98499510    -0.33300
C350        C  0.35951532  0.74791429  0.46708822     0.35800
H351        H  0.41195422  0.70028789  0.52879585     0.16100
O352        O  0.39872975  0.76049533  0.07064252    -0.60800
H353        H  0.34285660  0.81181629  0.97142011     0.16100
O354        O  0.34344582  0.74401437  0.43423281    -0.60900
H355        H  0.35625466  0.76014093  0.42032343     0.43100
H356        H  0.38183771  0.74927680  0.08267377     0.43100
C357        C  0.38077723  0.47712029  0.27845821    -0.06000
C358        C  0.35510299  0.50456180  0.27708193    -0.33400
C359        C  0.35553901  0.53411756  0.30225623     0.35900
C360        C  0.38188282  0.53651824  0.32917185    -0.06300
C361        C  0.40783489  0.50998815  0.33000551    -0.33300
C362        C  0.40732376  0.48026905  0.30541138     0.35800
H363        H  0.33466046  0.50329319  0.25636895     0.16100
O364        O  0.32929328  0.55861224  0.30151777    -0.60800
H365        H  0.42820603  0.51124750  0.35085871     0.16100
O366        O  0.43328557  0.45497666  0.30785984    -0.60900
H367        H  0.42809425  0.43249015  0.32229469     0.43100
H368        H  0.33308477  0.58120149  0.28652354     0.43100
C369        C  0.38214055  0.53048539  0.02891461    -0.06000
C370        C  0.35586109  0.50333298  0.02759332    -0.33400
C371        C  0.35504873  0.47488116  0.05340960     0.35900
C372        C  0.38096473  0.47276415  0.08083519    -0.06300
C373        C  0.40737313  0.49925956  0.08183369    -0.33300
C374        C  0.40816442  0.52783865  0.05645296     0.35800
H375        H  0.33576015  0.50417191  0.00652069     0.16100
O376        O  0.32833363  0.45049428  0.05223871    -0.60800
H377        H  0.42729259  0.49859515  0.10315381     0.16100
O378        O  0.43423003  0.55363275  0.05939910    -0.60900
H379        H  0.45245838  0.53740168  0.05404922     0.43100
H380        H  0.31383171  0.46497698  0.06529550     0.43100
C381        C  0.47220727  0.51321053  0.46871807    -0.06000
C382        C  0.46692565  0.49054447  0.99879804    -0.33400
C383        C  0.99152047  0.47432708  0.02331938     0.35900
C384        C  0.02377985  0.48677156  0.02354234    -0.06300
C385        C  0.02969125  0.51339222  0.49661796    -0.33300
C386        C  0.50442124  0.52452293  0.46736907     0.35800
H387        H  0.44213866  0.48135937  0.99946439     0.17700
O388        O  0.98386899  0.44764893  0.04692850    -0.60800
H389        H  0.05446099  0.52076801  0.49418936     0.16100
O390        O  0.51163530  0.54959753  0.44240505    -0.60900
H391        H  0.51134901  0.53222086  0.42212958     0.43100
H392        H  0.98027050  0.46434462  0.06654633     0.43100
C393        C  0.12315060  0.71968331  0.27052562    -0.06000
C394        C  0.12204962  0.71667394  0.23492246    -0.33400
C395        C  0.12464535  0.75057324  0.21468737     0.35900
C396        C  0.12841764  0.78888322  0.22966320    -0.06300
C397        C  0.12992485  0.79188342  0.26534088    -0.33300
C398        C  0.12718778  0.75795867  0.28557498     0.35800
H399        H  0.11894004  0.68769053  0.22240740     0.16100
O400        O  0.12369211  0.74570134  0.18036307    -0.60800
H401        H  0.13310197  0.82089002  0.27780607     0.16100
O402        O  0.12795447  0.76283136  0.31986827    -0.60900
H403        H  0.10498526  0.76599651  0.32252145     0.43100
H404        H  0.14612632  0.73861656  0.17785485     0.43100
C405        C  0.11560435  0.47448293  0.47148476    -0.06000
C406        C  0.14068632  0.50351668  0.47377730    -0.33400
C407        C  0.14099660  0.53242330  0.44820590     0.35900
C408        C  0.11598611  0.53270898  0.41978351    -0.06300
C409        C  0.09089130  0.50403916  0.41772995    -0.33300
C410        C  0.09056224  0.47518482  0.44293773     0.35800
H411        H  0.16005670  0.50410103  0.49560733     0.16100
O412        O  0.16671046  0.55858235  0.45032618    -0.60800
H413        H  0.07158903  0.50332088  0.39579893     0.16100
O414        O  0.06584738  0.44736767  0.43893174    -0.60900
H415        H  0.04700318  0.46139530  0.44551025     0.43100
H416        H  0.16041188  0.58232059  0.46269950     0.43100
C417        C  0.11382503  0.47385123  0.17007983    -0.06000
C418        C  0.09173815  0.50575930  0.16726755    -0.33400
C419        C  0.09340431  0.53497671  0.19252812     0.35900
C420        C  0.11685843  0.53230133  0.22224063    -0.06300
C421        C  0.13881293  0.50005166  0.22540860    -0.33300
C422        C  0.13740516  0.47096379  0.19961012     0.35800
H423        H  0.07344309  0.50886440  0.14465895     0.16100
O424        O  0.07169795  0.56587095  0.18782279    -0.60800
H425        H  0.15685666  0.49691573  0.24819069     0.16100
O426        O  0.16010003  0.44119555  0.20279876    -0.60900
H427        H  0.15223579  0.42073101  0.21749521     0.43100
H428        H  0.08296110  0.58776509  0.17757583     0.43100
C429        C  0.28304738  0.59371124  0.39080054    -0.06000
C430        C  0.26914617  0.56077879  0.37134296    -0.33400
C431        C  0.23628874  0.56045315  0.35669780     0.35900
C432        C  0.21678563  0.59349625  0.36135147    -0.06300
C433        C  0.23076663  0.62635850  0.38086202    -0.33300
C434        C  0.26355999  0.62670046  0.39543655     0.35800
H435        H  0.28396298  0.53552882  0.36675634     0.16100
O436        O  0.22384741  0.52843857  0.33686343    -0.60800
H437        H  0.21609706  0.65175478  0.38541301     0.16100
O438        O  0.27603615  0.65885098  0.41509007    -0.60900
H439        H  0.28089089  0.67943860  0.39874618     0.43100
H440        H  0.21965153  0.50739831  0.35311547     0.43100
C441        C  0.02860874  0.66221548  0.36102386    -0.06000
C442        C  0.03120110  0.66374176  0.39672160    -0.33400
C443        C  0.00358242  0.66391329  0.41230051     0.35900
C444        C  0.47224445  0.66028194  0.38828790    -0.06300
C445        C  0.46957655  0.65613226  0.35271851    -0.33300
C446        C  0.49706070  0.65639337  0.33697329     0.35800
H447        H  0.05479445  0.66265393  0.41285606     0.16100
O448        O  0.00760910  0.66244579  0.44714059    -0.60800
H449        H  0.44619655  0.65024765  0.33704144     0.16100
O450        O  0.49329461  0.64820681  0.30278261    -0.60900
H451        H  0.48819777  0.67430962  0.29139980     0.43100
H452        H  0.00754759  0.69080015  0.45461609     0.43100
C453        C  0.02442499  0.51881317  0.27506658    -0.06000
C454        C  0.99424346  0.53819029  0.26909697    -0.33400
C455        C  0.46677087  0.52231884  0.24752735     0.35900
C456        C  0.47114385  0.49211302  0.22408156    -0.06300
C457        C  0.50226359  0.47674278  0.22400293    -0.33300
C458        C  0.02839067  0.48332056  0.25722799     0.35800
H459        H  0.99051434  0.56555288  0.28257419     0.16100
O460        O  0.43665074  0.53743945  0.24895897    -0.60800
H461        H  0.50604151  0.45326209  0.20627383     0.16100
O462        O  0.05713604  0.46296443  0.26259656    -0.60900
H463        H  0.05541456  0.44421582  0.28148963     0.43100
H464        H  0.43576038  0.56327616  0.23662072     0.43100
O465        O  0.16444678  0.55696365  0.84523894    -0.82300
C466        C  0.05794486  0.65134084  0.84498744     0.97100
O467        O  0.08310970  0.64060175  0.86468623    -0.71400
O468        O  0.12832631  0.58959167  0.88981366    -0.75000
Al469      Al  0.12402760  0.63049101  0.85339260     1.49000
C470        C  0.11561031  0.55462672  0.88938498     0.92300
O471        O  0.07966743  0.52398949  0.79806857    -0.81200
O472        O  0.09224286  0.57774211  0.75297788    -0.74800
Al473      Al  0.12067702  0.54615569  0.82159843     1.90100
O474        O  0.04852935  0.57605130  0.79800727    -0.73900
O475        O  0.10547849  0.65148717  0.77291033    -0.73700
O476        O  0.05731596  0.65075523  0.81306899    -0.79400
O477        O  0.12245329  0.67813042  0.82321213    -0.77600
O478        O  0.10801572  0.59682598  0.82043651    -1.13700
O479        O  0.16652422  0.62264770  0.84579730    -0.72900
C480        C  0.18069471  0.58937216  0.84988534     0.97800
C481        C  0.05179238  0.53964703  0.79196339     0.94200
Al482      Al  0.07830192  0.61299863  0.78670734     1.55600
O483        O  0.10520381  0.53729868  0.86164865    -0.77500
C484        C  0.11738516  0.68076134  0.79072894     0.98400
C485        C  0.11700366  0.55575847  0.75327139     0.93300
O486        O  0.13670873  0.55060688  0.78052687    -0.82800
O487        O  0.33417309  0.56155137  0.90824434    -0.82300
C488        C  0.44270928  0.65472205  0.90850744     0.97100
O489        O  0.41694597  0.64538946  0.88884714    -0.71400
O490        O  0.37074286  0.59562068  0.86271205    -0.75000
Al491      Al  0.37589574  0.63502882  0.90024160     1.49000
C492        C  0.38253346  0.56059387  0.86211475     0.92300
O493        O  0.41849599  0.52722129  0.95151271    -0.81200
O494        O  0.41131348  0.57686028  0.49682343    -0.74800
Al495      Al  0.37784623  0.55008796  0.93030008     1.90100
O496        O  0.45126344  0.57878971  0.95299274    -0.73900
O497        O  0.39656640  0.65424974  0.98156303    -0.73700
O498        O  0.44347139  0.65414677  0.94038211    -0.79400
O499        O  0.37825774  0.68100865  0.93175618    -0.77600
O500        O  0.39167272  0.60055007  0.93234035    -1.13700
O501        O  0.33307535  0.62713759  0.90751351    -0.72900
C502        C  0.31844044  0.59386853  0.90332544     0.97800
C503        C  0.44683530  0.54209881  0.95712068     0.94200
Al504      Al  0.42252371  0.61570755  0.96605732     1.55600
O505        O  0.39175696  0.54185177  0.88923255    -0.77500
C506        C  0.38389816  0.68322378  0.96423683     0.98400
C507        C  0.38569801  0.55640223  0.49782717     0.93300
O508        O  0.36343898  0.55360234  0.97263249    -0.82800
O509        O  0.36170098  0.45580894  0.72277785    -0.82300
C510        C  0.43786974  0.35660636  0.65368740     0.97100
O511        O  0.43954648  0.35719456  0.68574839    -0.71400
O512        O  0.44820421  0.43263542  0.69932773    -0.75000
Al513      Al  0.41983732  0.39528550  0.71294186     1.49000
C514        C  0.44460402  0.46899580  0.70549173     0.92300
O515        O  0.38776596  0.47065455  0.63884169    -0.81200
O516        O  0.32995845  0.38314067  0.65706164    -0.74800
Al517      Al  0.37493589  0.46093108  0.68005660     1.90100
O518        O  0.36601632  0.41711366  0.61143355    -0.73900
O519        O  0.37549328  0.32960085  0.67832871    -0.73700
O520        O  0.41233370  0.36759407  0.63487104    -0.79400
O521        O  0.39373702  0.35661825  0.72845168    -0.77600
O522        O  0.38855734  0.41073090  0.68040767    -1.13700
O523        O  0.40799133  0.43104812  0.74765308    -0.72900
C524        C  0.38346879  0.45296085  0.74877684     0.97800
C525        C  0.37829610  0.45221200  0.61147026     0.94200
Al526      Al  0.37203993  0.37668894  0.64791457     1.55600
O527        O  0.41646612  0.48402570  0.70091688    -0.77500
C528        C  0.38145893  0.32733645  0.71079321     0.98400
C529        C  0.31506981  0.41587008  0.65353910     0.93300
O530        O  0.33061483  0.44876693  0.65872249    -0.82800
O531        O  0.13373100  0.45209651  0.52798085    -0.82300
C532        C  0.05343592  0.35255815  0.59340535     0.97100
O533        O  0.05233747  0.35403529  0.56145857    -0.71400
O534        O  0.04511858  0.42947151  0.54722265    -0.75000
Al535      Al  0.07377951  0.39156083  0.53517936     1.49000
C536        C  0.04985058  0.46586503  0.54187867     0.92300
O537        O  0.10390934  0.46713868  0.60981319    -0.81200
O538        O  0.16326003  0.38130310  0.59449485    -0.74800
Al539      Al  0.11851382  0.45755925  0.56961666     1.90100
O540        O  0.12508322  0.41466861  0.63812036    -0.73900
O541        O  0.11819062  0.32642170  0.57069681    -0.73700
O542        O  0.07898782  0.36294488  0.61298566    -0.79400
O543        O  0.09963817  0.35249988  0.52063832    -0.77600
O544        O  0.10450345  0.40720247  0.56869226    -1.13700
O545        O  0.08838393  0.42551276  0.00296362    -0.72900
C546        C  0.11339532  0.44728823  0.00252327     0.97800
C547        C  0.11426669  0.45039580  0.63762178     0.94200
Al548      Al  0.12017953  0.37355142  0.60152884     1.55600
O549        O  0.07828261  0.48039714  0.54706367    -0.77500
C550        C  0.11284783  0.32405954  0.53816938     0.98400
C551        C  0.17767606  0.41477892  0.59848259     0.93300
O552        O  0.16181060  0.44682344  0.59280235    -0.82800
O553        O  0.38376376  0.95194971  0.52719847    -0.82300
C554        C  0.30372177  0.85488571  0.59437342     0.97100
O555        O  0.30212625  0.85518230  0.56232885    -0.71400
O556        O  0.29559536  0.93011883  0.54758246    -0.75000
Al557      Al  0.32364024  0.89197251  0.53533867     1.49000
C558        C  0.30010616  0.96635072  0.54168465     0.92300
O559        O  0.35469203  0.96841701  0.60902879    -0.81200
O560        O  0.41297093  0.88137202  0.59325458    -0.74800
Al561      Al  0.36903580  0.95811342  0.56886628     1.90100
O562        O  0.37577762  0.91567339  0.63730483    -0.73900
O563        O  0.36797235  0.82707626  0.57110546    -0.73700
O564        O  0.32969333  0.86503578  0.61320966    -0.79400
O565        O  0.34898175  0.85223643  0.52085334    -0.77600
O566        O  0.35473636  0.90783878  0.56833802    -1.13700
O567        O  0.34056243  0.93020046  0.99805645    -0.72900
C568        C  0.36627867  0.95009957  0.99661602     0.97800
C569        C  0.36391612  0.95078780  0.63660632     0.94200
Al570      Al  0.37046008  0.87449910  0.60120089     1.55600
O571        O  0.32854896  0.98099730  0.54648458    -0.77500
C572        C  0.36207886  0.82390449  0.53869779     0.98400
C573        C  0.42809233  0.91425061  0.59712133     0.93300
O574        O  0.41276966  0.94688115  0.59185847    -0.82800
O575        O  0.11269898  0.95439594  0.72099509    -0.82300
C576        C  0.18804553  0.85276145  0.65462963     0.97100
O577        O  0.18947709  0.85372510  0.68664785    -0.71400
O578        O  0.19915130  0.92930493  0.69870876    -0.75000
Al579      Al  0.17028457  0.89303268  0.71303623     1.49000
C580        C  0.19543225  0.96610645  0.70275088     0.92300
O581        O  0.13870691  0.96652899  0.63697293    -0.81200
O582        O  0.07978831  0.88148801  0.65713584    -0.74800
Al583      Al  0.12605128  0.95831988  0.67844686     1.90100
O584        O  0.11616170  0.91280677  0.61060312    -0.73900
O585        O  0.12480712  0.82729128  0.68007237    -0.73700
O586        O  0.16235681  0.86281166  0.63547967    -0.79400
O587        O  0.14386971  0.85520673  0.72955924    -0.77600
O588        O  0.13908574  0.90798102  0.67996522    -1.13700
O589        O  0.15884726  0.93042126  0.74704459    -0.72900
C590        C  0.13405496  0.95218984  0.74731164     0.97800
C591        C  0.12814676  0.94803563  0.60985745     0.94200
Al592      Al  0.12196693  0.87332289  0.64826663     1.55600
O593        O  0.16734615  0.98103962  0.69835153    -0.77500
C594        C  0.13110891  0.82559879  0.71262044     0.98400
C595        C  0.06586952  0.91493145  0.65294588     0.93300
O596        O  0.08219263  0.94707803  0.65760709    -0.82800
O597        O  0.08312918  0.06347978  0.90477043    -0.82300
C598        C  0.19260045  0.15564320  0.90396309     0.97100
O599        O  0.16687268  0.14592114  0.88443267    -0.71400
O600        O  0.12003129  0.09658749  0.85895172    -0.75000
Al601      Al  0.12574181  0.13618616  0.89628254     1.49000
C602        C  0.13155897  0.06140688  0.85843490     0.92300
O603        O  0.16780583  0.02771818  0.94786660    -0.81200
O604        O  0.15590657  0.07634077  0.49601515    -0.74800
Al605      Al  0.12688258  0.05111319  0.92654954     1.90100
O606        O  0.20035263  0.07930670  0.94764226    -0.73900
O607        O  0.14649203  0.15419175  0.97745282    -0.73700
O608        O  0.19340557  0.15482962  0.93588988    -0.79400
O609        O  0.12863658  0.18234668  0.92805221    -0.77600
O610        O  0.14119106  0.10142239  0.92823556    -1.13700
O611        O  0.08300661  0.12915573  0.90386672    -0.72900
C612        C  0.06788636  0.09623317  0.89999815     0.97800
C613        C  0.19614833  0.04281680  0.95272786     0.94200
Al614      Al  0.17227823  0.11616470  0.96158525     1.55600
O615        O  0.14043485  0.04233731  0.88542493    -0.77500
C616        C  0.13356965  0.18328382  0.96061013     0.98400
C617        C  0.13132049  0.05358287  0.49555473     0.93300
O618        O  0.11266762  0.05514982  0.96892706    -0.82800
O619        O  0.41410354  0.05796329  0.83656465    -0.82300
C620        C  0.30867310  0.15237766  0.84351942     0.97100
O621        O  0.33463023  0.14145584  0.86177810    -0.71400
O622        O  0.37966608  0.08870152  0.88324422    -0.75000
Al623      Al  0.37506028  0.13132910  0.84870753     1.49000
C624        C  0.36755976  0.05336837  0.88177615     0.92300
O625        O  0.32974485  0.02766922  0.79047864    -0.81200
O626        O  0.33962203  0.08350958  0.74692578    -0.74800
Al627      Al  0.37053959  0.04914284  0.81358767     1.90100
O628        O  0.29786902  0.07843670  0.79377157    -0.73900
O629        O  0.35310046  0.15630670  0.76921842    -0.73700
O630        O  0.30665577  0.15280113  0.81140419    -0.79400
O631        O  0.37340067  0.17982535  0.82005395    -0.77600
O632        O  0.35769954  0.09943789  0.81505568    -1.13700
O633        O  0.41763075  0.12336755  0.83990011    -0.72900
C634        C  0.43100992  0.08946131  0.84255985     0.97800
C635        C  0.30166072  0.04247623  0.78642506     0.94200
Al636      Al  0.32681546  0.11680477  0.78275473     1.55600
O637        O  0.35635929  0.03719299  0.85370435    -0.77500
C638        C  0.36722119  0.18374610  0.78773378     0.98400
C639        C  0.36466471  0.06235957  0.74604080     0.93300
O640        O  0.38544733  0.05808083  0.77254873    -0.82800
C641        C  0.22246496  0.16441829  0.88928525    -0.06000
C642        C  0.25302765  0.16074275  0.90987731    -0.33400
C643        C  0.28143391  0.15911105  0.89561231     0.35900
C644        C  0.27994274  0.16192535  0.85989611    -0.06300
C645        C  0.24959592  0.16903785  0.83962400    -0.33300
C646        C  0.22116459  0.17036699  0.85393366     0.35800
H647        H  0.25486972  0.15644406  0.93706322     0.16100
O648        O  0.31036717  0.15307325  0.91692224    -0.60800
H649        H  0.24756548  0.17162955  0.81226201     0.16100
O650        O  0.19205787  0.17548698  0.83271831    -0.60900
H651        H  0.18763975  0.20459546  0.83359819     0.43100
H652        H  0.31159029  0.12369524  0.92061068     0.43100
C653        C  0.03240960  0.09603739  0.88772075    -0.06000
C654        C  0.01449487  0.06037267  0.88849252    -0.33400
C655        C  0.48061716  0.05133865  0.87006728     0.35900
C656        C  0.46625354  0.08666314  0.85502416    -0.06300
C657        C  0.48552882  0.12098784  0.85431951    -0.33300
C658        C  0.01639452  0.13056305  0.87308779     0.35800
H659        H  0.02615547  0.03355280  0.89971200     0.16100
O660        O  0.46275058  0.01679529  0.87093308    -0.60800
H661        H  0.47520493  0.14819041  0.84241466     0.16100
O662        O  0.03283224  0.16597374  0.87100245    -0.60900
H663        H  0.02990035  0.18148571  0.89150064     0.43100
H664        H  0.45474295  0.01773883  0.89293079     0.43100
C665        C  0.27418892  0.02086860  0.76701090    -0.06000
C666        C  0.28023812  0.99178622  0.74347606    -0.33400
C667        C  0.25490626  0.97585806  0.71996073     0.35900
C668        C  0.22308626  0.98919153  0.71988524    -0.06300
C669        C  0.21716638  0.01876171  0.74298699    -0.33300
C670        C  0.24238601  0.03442328  0.76663145     0.35800
H671        H  0.30474041  0.98214199  0.74259099     0.16100
O672        O  0.26141105  0.94755118  0.69702991    -0.60800
H673        H  0.19267385  0.02831746  0.74404638     0.16100
O674        O  0.23560895  0.06217651  0.78985882    -0.60900
H675        H  0.23200158  0.08770093  0.77713264     0.43100
H676        H  0.26623149  0.92262231  0.71036838     0.43100
C677        C  0.13266056  0.98020688  0.77602409    -0.06000
C678        C  0.16108472  0.98823439  0.79947789    -0.33400
C679        C  0.16169410  0.01776811  0.82448193     0.35900
C680        C  0.13351919  0.03971649  0.82677643    -0.06300
C681        C  0.10538988  0.03286900  0.80290113    -0.33300
C682        C  0.10475856  0.00340037  0.77765276     0.35800
H683        H  0.18314646  0.97197628  0.79820654     0.16100
O684        O  0.18969573  0.02392944  0.84751976    -0.60800
H685        H  0.08337186  0.04886403  0.80493062     0.16100
O686        O  0.07662058  0.99748636  0.75485920    -0.60900
H687        H  0.06532093  0.97499805  0.76425918     0.43100
H688        H  0.19815626  0.05041964  0.84168460     0.43100
C689        C  0.12949190  0.97046898  0.57816561    -0.06000
C690        C  0.15474930  0.99863141  0.57905805    -0.33400
C691        C  0.15468617  0.02682456  0.55340203     0.35900
C692        C  0.12922900  0.02718694  0.52519170    -0.06300
C693        C  0.10417539  0.99820114  0.52369465    -0.33300
C694        C  0.10406797  0.97017000  0.55006627     0.35800
H695        H  0.17455095  0.99953318  0.60050433     0.16100
O696        O  0.18026309  0.05329383  0.55605491    -0.60800
H697        H  0.08465685  0.99714720  0.50201791     0.16100
O698        O  0.07873005  0.94349607  0.54847792    -0.60900
H699        H  0.06343838  0.95615646  0.56167961     0.43100
H700        H  0.17329272  0.07724340  0.56759519     0.43100
C701        C  0.27294283  0.98836659  0.52268600    -0.06000
C702        C  0.28160680  0.01872057  0.99142800    -0.33400
C703        C  0.25545584  0.03198403  0.96777513     0.35900
C704        C  0.22363011  0.02136077  0.97152869    -0.06300
C705        C  0.21606354  0.98930394  0.49734435    -0.33300
C706        C  0.24083968  0.97463817  0.52179756     0.35800
H707        H  0.30602740  0.02520782  0.98720779     0.16100
O708        O  0.26112648  0.05482174  0.94076846    -0.60800
H709        H  0.19140552  0.97932596  0.49768460     0.16100
O710        O  0.23349131  0.94626929  0.54423481    -0.60900
H711        H  0.23177674  0.96127943  0.56534316     0.43100
H712        H  0.26688886  0.08190477  0.95038297     0.43100
C713        C  0.36768591  0.02840441  0.91208285    -0.06000
C714        C  0.34317356  0.99923646  0.91104040    -0.33400
C715        C  0.34393017  0.97125606  0.93694720     0.35900
C716        C  0.36918749  0.97257698  0.96532539    -0.06300
C717        C  0.39445737  0.00090195  0.96577054    -0.33300
C718        C  0.39384655  0.02864265  0.93933627     0.35800
H719        H  0.32324188  0.99790059  0.88974328     0.16100
O720        O  0.31910706  0.94372897  0.93466970    -0.60800
H721        H  0.41431855  0.00235641  0.98709264     0.16100
O722        O  0.41950356  0.05456963  0.93967652    -0.60900
H723        H  0.41398404  0.07865089  0.95206767     0.43100
H724        H  0.32646552  0.92028323  0.92277093     0.43100
C725        C  0.36276241  0.97453540  0.66727478    -0.06000
C726        C  0.39104064  0.98004914  0.69118034    -0.33400
C727        C  0.39292738  0.01039430  0.71578620     0.35900
C728        C  0.36611872  0.03578029  0.71664179    -0.06300
C729        C  0.33782104  0.02988422  0.69259500    -0.33300
C730        C  0.33600932  0.99964297  0.66814646     0.35800
H731        H  0.41221451  0.96204809  0.68980918     0.16100
O732        O  0.42130992  0.01541199  0.73841592    -0.60800
H733        H  0.31655177  0.04796936  0.69323233     0.16100
O734        O  0.30783555  0.99456812  0.64513669    -0.60900
H735        H  0.30789918  0.01637944  0.62829200     0.43100
H736        H  0.42088569  0.99436131  0.75588620     0.43100
C737        C  0.27468712  0.84547262  0.61022379    -0.06000
C738        C  0.24414777  0.83995400  0.58968022    -0.33400
C739        C  0.21572845  0.83883396  0.60397586     0.35900
C740        C  0.21734798  0.84354526  0.63952672    -0.06300
C741        C  0.24797415  0.84569372  0.66022003    -0.33300
C742        C  0.27634034  0.84699381  0.64601958     0.35800
H743        H  0.24205006  0.83848048  0.56224045     0.16100
O744        O  0.18643606  0.83526934  0.58263729    -0.60800
H745        H  0.25002086  0.84907701  0.68754276     0.16100
O746        O  0.30546359  0.85146119  0.66754153    -0.60900
H747        H  0.30762248  0.88060069  0.67258413     0.43100
H748        H  0.17982253  0.80682872  0.58434438     0.43100
C749        C  0.46352612  0.91426057  0.61003612    -0.06000
C750        C  0.48066887  0.95068369  0.61627896    -0.33400
C751        C  0.01391046  0.95258058  0.63307167     0.35900
C752        C  0.03074378  0.91613488  0.63963526    -0.06300
C753        C  0.01434271  0.87993967  0.63020443    -0.33300
C754        C  0.48023574  0.87804027  0.61847451     0.35800
H755        H  0.46844644  0.97890761  0.61022887     0.16100
O756        O  0.02916021  0.98884634  0.64070791    -0.60800
H757        H  0.02678870  0.85156550  0.63422823     0.16100
O758        O  0.46478351  0.84154283  0.61334662    -0.60900
H759        H  0.46742778  0.83313574  0.59011550     0.43100
H760        H  0.02658399  0.99475165  0.66448676     0.43100
C761        C  0.11978904  0.28740689  0.51931056    -0.06000
C762        C  0.11861900  0.24954145  0.53408869    -0.33400
C763        C  0.12098981  0.21453852  0.51505116     0.35900
C764        C  0.12664387  0.21903717  0.98030258    -0.06300
C765        C  0.13003521  0.25744053  0.96731727    -0.33300
C766        C  0.12797830  0.29146595  0.98746519     0.35800
H767        H  0.11492505  0.24694414  0.56024073     0.16100
O768        O  0.11876562  0.17814415  0.53048273    -0.60800
H769        H  0.13538783  0.26111196  0.94184936     0.16100
O770        O  0.13231657  0.32847341  0.97390722    -0.60900
H771        H  0.15530734  0.33571582  0.98243039     0.43100
H772        H  0.14064940  0.17335825  0.54381917     0.43100
C773        C  0.37412601  0.22096847  0.77006984    -0.06000
C774        C  0.38164686  0.21807032  0.73699231    -0.33400
C775        C  0.38304575  0.25218591  0.71681596     0.35900
C776        C  0.37643258  0.29007052  0.72937526    -0.06300
C777        C  0.36926878  0.29299489  0.76258631    -0.33300
C778        C  0.36787776  0.25887980  0.78275093     0.35800
H779        H  0.38617678  0.18902403  0.72658639     0.16100
O780        O  0.39158751  0.24822758  0.68525745    -0.60800
H781        H  0.36452728  0.32199247  0.77292845     0.16100
O782        O  0.35917073  0.26282067  0.81422085    -0.60900
H783        H  0.33534796  0.25843550  0.81036482     0.43100
H784        H  0.41564236  0.24828737  0.68944452     0.43100
C785        C  0.21296012  0.41621306  0.61179681    -0.06000
C786        C  0.23069853  0.38063960  0.61315732    -0.33400
C787        C  0.26351180  0.37992350  0.62745007     0.35900
C788        C  0.27961430  0.41541156  0.64085055    -0.06300
C789        C  0.26188736  0.45109365  0.63961151    -0.33300
C790        C  0.22889822  0.45174533  0.62525485     0.35800
H791        H  0.21911346  0.35295808  0.60303276     0.16100
O792        O  0.27974721  0.34444016  0.62693624    -0.60800
H793        H  0.27363104  0.47871319  0.64965581     0.16100
O794        O  0.21238667  0.48704854  0.62550493    -0.60900
H795        H  0.21495499  0.50068571  0.60403966     0.43100
H796        H  0.27666426  0.33036131  0.64803170     0.43100
C797        C  0.46660347  0.34623119  0.63807952    -0.06000
C798        C  0.99696861  0.33708002  0.65778361    -0.33400
C799        C  0.02532770  0.33578187  0.64333380     0.35900
C800        C  0.02387082  0.34222527  0.60803868    -0.06300
C801        C  0.49311932  0.34324443  0.58803818    -0.33300
C802        C  0.46471385  0.34376587  0.60232190     0.35800
H803        H  0.99906916  0.33458371  0.68515893     0.16100
O804        O  0.05452124  0.33038149  0.66432333    -0.60800
H805        H  0.49097949  0.34365296  0.56057004     0.16100
O806        O  0.43528775  0.34330504  0.58095152    -0.60900
H807        H  0.43193366  0.37124245  0.57270422     0.43100
H808        H  0.05711500  0.30091742  0.66621776     0.43100
C809        C  0.37750960  0.72021340  0.98298867    -0.06000
C810        C  0.38979809  0.72351097  0.01824314    -0.33400
C811        C  0.38975170  0.75668355  0.53553695     0.35900
C812        C  0.36889721  0.78681087  0.52032190    -0.06300
C813        C  0.35388405  0.78173538  0.48603738    -0.33300
C814        C  0.36051636  0.75276846  0.96655951     0.35800
H815        H  0.40321035  0.69908168  0.03167044     0.16100
O816        O  0.40548575  0.76053173  0.56852261    -0.60800
H817        H  0.33731098  0.80406313  0.47365013     0.16100
O818        O  0.34736958  0.75089145  0.93262811    -0.60900
H819        H  0.36373765  0.76362981  0.92071266     0.43100
H820        H  0.39091054  0.74762734  0.58252624     0.43100
C821        C  0.38300579  0.48049478  0.77814143    -0.06000
C822        C  0.35834877  0.50942086  0.77665417    -0.33400
C823        C  0.35911715  0.53848377  0.80236319     0.35900
C824        C  0.38454361  0.53864330  0.83036269    -0.06300
C825        C  0.40986262  0.51114015  0.83104018    -0.33300
C826        C  0.40929869  0.48235160  0.80549597     0.35800
H827        H  0.33838347  0.50968106  0.75542147     0.16100
O828        O  0.33397126  0.56485258  0.80085778    -0.60800
H829        H  0.42987330  0.51109650  0.85227833     0.16100
O830        O  0.43501715  0.45676758  0.80736764    -0.60900
H831        H  0.43008456  0.43447948  0.82212354     0.43100
H832        H  0.34097920  0.58898773  0.78946486     0.43100
C833        C  0.38336290  0.53035340  0.52748700    -0.06000
C834        C  0.35705590  0.50323141  0.52605708    -0.33400
C835        C  0.35578768  0.47548532  0.55220210     0.35900
C836        C  0.38116164  0.47428035  0.58017516    -0.06300
C837        C  0.40772975  0.50055334  0.58121644    -0.33300
C838        C  0.40903859  0.52829519  0.55537602     0.35800
H839        H  0.33731209  0.50346239  0.50459889     0.16100
O840        O  0.32917947  0.45084442  0.55072567    -0.60800
H841        H  0.42737236  0.50030584  0.60282483     0.16100
O842        O  0.43526807  0.55379116  0.55819061    -0.60900
H843        H  0.45251214  0.53817898  0.55005595     0.43100
H844        H  0.31465494  0.46484624  0.56405770     0.43100
C845        C  0.47382174  0.51925290  0.97540939    -0.06000
C846        C  0.46556743  0.48649178  0.49369537    -0.33400
C847        C  0.99087198  0.47792264  0.52488300     0.35900
C848        C  0.02309662  0.48832152  0.52280628    -0.06300
C849        C  0.03078751  0.51413687  0.99911657    -0.33300
C850        C  0.50604432  0.53211078  0.97598690     0.35800
H851        H  0.44083146  0.47806207  0.49542342     0.17700
O852        O  0.98377748  0.45420429  0.55075111    -0.60800
H853        H  0.05561503  0.52284788  0.99811771     0.16100
O854        O  0.51351083  0.56026647  0.95343030    -0.60900
H855        H  0.52150283  0.54482081  0.93531503     0.43100
H856        H  0.97850169  0.47315006  0.56820002     0.43100
C857        C  0.12292602  0.71822806  0.77198800    -0.06000
C858        C  0.12232280  0.71593283  0.73646421    -0.33400
C859        C  0.12381649  0.75035518  0.71665607     0.35900
C860        C  0.12599594  0.78848862  0.73199899    -0.06300
C861        C  0.12677600  0.79087982  0.76756449    -0.33300
C862        C  0.12508044  0.75635616  0.78739450     0.35800
H863        H  0.12049810  0.68709119  0.72368401     0.16100
O864        O  0.12358301  0.74613979  0.68238831    -0.60800
H865        H  0.12868007  0.81979712  0.78021704     0.16100
O866        O  0.12506835  0.76042081  0.82163015    -0.60900
H867        H  0.10199848  0.76407615  0.82371155     0.43100
H868        H  0.14671433  0.74404577  0.68001647     0.43100
C869        C  0.11518018  0.47353028  0.97282747    -0.06000
C870        C  0.13897813  0.50416731  0.97522852    -0.33400
C871        C  0.13845036  0.53282822  0.94936693     0.35900
C872        C  0.11402093  0.53104236  0.92042712    -0.06300
C873        C  0.09000350  0.50098837  0.91842369    -0.33300
C874        C  0.09039469  0.47255320  0.94403299     0.35800
H875        H  0.15791033  0.50627002  0.99740210     0.16100
O876        O  0.16280511  0.56098205  0.95186312    -0.60800
H877        H  0.07097669  0.49888777  0.89630214     0.16100
O878        O  0.06654752  0.44360195  0.94024306    -0.60900
H879        H  0.04751247  0.45657878  0.94733225     0.43100
H880        H  0.15449326  0.58463554  0.96267635     0.43100
C881        C  0.11518662  0.47566764  0.66848155    -0.06000
C882        C  0.09992779  0.51333858  0.66442257    -0.33400
C883        C  0.10246819  0.54078933  0.69107855     0.35900
C884        C  0.11978840  0.53086590  0.72320235    -0.06300
C885        C  0.13554873  0.49350486  0.72749881    -0.33300
C886        C  0.13329038  0.46594919  0.70044611     0.35800
H887        H  0.08602476  0.52214639  0.64014177     0.16100
O888        O  0.08740304  0.57710951  0.68546899    -0.60800
H889        H  0.14872441  0.48498092  0.75220867     0.16100
O890        O  0.14923400  0.43016308  0.70547079    -0.60900
H891        H  0.13307082  0.41098066  0.71182129     0.43100
H892        H  0.10380941  0.59520309  0.67811733     0.43100
C893        C  0.28302547  0.59266339  0.89050205    -0.06000
C894        C  0.26680101  0.55555398  0.88437991    -0.33400
C895        C  0.23368799  0.55359975  0.87053268     0.35900
C896        C  0.21617143  0.58921330  0.86230383    -0.06300
C897        C  0.23255009  0.62616718  0.86817178    -0.33300
C898        C  0.26545310  0.62816376  0.88191338     0.35800
H899        H  0.27980304  0.52780191  0.89018719     0.16100
O900        O  0.21891889  0.51674929  0.86493359    -0.60800
H901        H  0.21980585  0.65408018  0.86227077     0.16100
O902        O  0.27999750  0.66521352  0.88690443    -0.60900
H903        H  0.28605909  0.67242047  0.86465585     0.43100
H904        H  0.21405309  0.50831130  0.88737502     0.43100
C905        C  0.02875153  0.66176867  0.85991663    -0.06000
C906        C  0.03146554  0.66421836  0.89558655    -0.33400
C907        C  0.00395630  0.66475950  0.91126510     0.35900
C908        C  0.47244179  0.66291589  0.89369325    -0.06300
C909        C  0.46979576  0.66667783  0.85814396    -0.33300
C910        C  0.49719639  0.66511967  0.84228604     0.35800
H911        H  0.05509256  0.66348146  0.91168332     0.16100
O912        O  0.00814644  0.66418727  0.94613273    -0.60800
H913        H  0.44614435  0.66871390  0.84222428     0.16100
O914        O  0.49294047  0.66605876  0.80741911    -0.60900
H915        H  0.49175562  0.69492149  0.80144863     0.43100
H916        H  0.00694227  0.69263429  0.95303497     0.43100
C917        C  0.02377709  0.51863240  0.77223149    -0.06000
C918        C  0.99327753  0.53714715  0.76841468    -0.33400
C919        C  0.46831330  0.51995539  0.74855245     0.35900
C920        C  0.47261976  0.49032266  0.72462059    -0.06300
C921        C  0.50360146  0.47418242  0.72497679    -0.33300
C922        C  0.02795138  0.48537116  0.75175603     0.35800
H923        H  0.98961649  0.56321780  0.78354849     0.16100
O924        O  0.43834726  0.53559361  0.74984126    -0.60800
H925        H  0.50727314  0.45082344  0.70710094     0.16100
O926        O  0.05745202  0.46709981  0.75383523    -0.60900
H927        H  0.05794459  0.44670027  0.77199021     0.43100
H928        H  0.43690363  0.55991348  0.73544185     0.43100
O929        O  0.66461907  0.55825315  0.34262114    -0.82300
C930        C  0.55795731  0.65188981  0.34254748     0.97100
O931        O  0.58287756  0.64113145  0.36261716    -0.71400
O932        O  0.62820529  0.59047905  0.38792774    -0.75000
Al933      Al  0.62407548  0.63142593  0.35179575     1.49000
C934        C  0.61563819  0.55546718  0.38715391     0.92300
O935        O  0.58000040  0.52547039  0.29622832    -0.81200
O936        O  0.59251825  0.57897823  0.25080743    -0.74800
Al937      Al  0.62103095  0.54737012  0.31929025     1.90100
O938        O  0.54880777  0.57776615  0.29548902    -0.73900
O939        O  0.60674491  0.65250893  0.27144342    -0.73700
O940        O  0.55806062  0.65231629  0.31077110    -0.79400
O941        O  0.62279759  0.67904732  0.32200337    -0.77600
O942        O  0.60837552  0.59795257  0.31845925    -1.13700
O943        O  0.66670925  0.62394860  0.34465822    -0.72900
C944        C  0.68081857  0.59060566  0.34784959     0.97800
C945        C  0.55215604  0.54116447  0.29025465     0.94200
Al946      Al  0.57895955  0.61441886  0.28459264     1.55600
O947        O  0.60574306  0.53820310  0.35930920    -0.77500
C948        C  0.61852730  0.68163633  0.28956958     0.98400
C949        C  0.61689198  0.55645686  0.25081080     0.93300
O950        O  0.63693250  0.55180508  0.27791847    -0.82800
O951        O  0.83343703  0.56060507  0.40648071    -0.82300
C952        C  0.94289338  0.65276175  0.40721845     0.97100
O953        O  0.91695398  0.64381351  0.38767530    -0.71400
O954        O  0.87019537  0.59478398  0.36138954    -0.75000
Al955      Al  0.87587805  0.63361857  0.39931319     1.49000
C956        C  0.88159704  0.55958344  0.36053099     0.92300
O957        O  0.91712070  0.52421357  0.44964269    -0.81200
O958        O  0.91038394  0.57818088  0.99863739    -0.74800
Al959      Al  0.87681417  0.54820540  0.42848095     1.90100
O960        O  0.95036054  0.57512165  0.45016225    -0.73900
O961        O  0.89772858  0.65137612  0.48081848    -0.73700
O962        O  0.94405979  0.65090405  0.43910167    -0.79400
O963        O  0.87888768  0.67894256  0.43146942    -0.77600
O964        O  0.89133283  0.59845778  0.43089094    -1.13700
O965        O  0.83306941  0.62619733  0.40674644    -0.72900
C966        C  0.81811371  0.59321041  0.40187235     0.97800
C967        C  0.94559922  0.53865734  0.45487209     0.94200
Al968      Al  0.92266782  0.61249742  0.46439638     1.55600
O969        O  0.89053649  0.54030754  0.38743779    -0.77500
C970        C  0.88500608  0.68063553  0.46396214     0.98400
C971        C  0.88510733  0.55686957  0.99910547     0.93300
O972        O  0.86248194  0.55165740  0.47080222    -0.82800
O973        O  0.86194175  0.45496193  0.22150976    -0.82300
C974        C  0.93889361  0.35421416  0.15494699     0.97100
O975        O  0.94071466  0.35586809  0.18697226    -0.71400
O976        O  0.94884401  0.43170147  0.19905360    -0.75000
Al977      Al  0.92070740  0.39438417  0.21333404     1.49000
C978        C  0.94532350  0.46792374  0.20575008     0.92300
O979        O  0.88917895  0.46802282  0.13794720    -0.81200
O980        O  0.83060987  0.38152654  0.15731287    -0.74800
Al981      Al  0.87578503  0.45934450  0.17909708     1.90100
O982        O  0.86715813  0.41401900  0.11129942    -0.73900
O983        O  0.87540045  0.32830597  0.18036365    -0.73700
O984        O  0.91310261  0.36412309  0.13600522    -0.79400
O985        O  0.89511288  0.35582133  0.22977574    -0.77600
O986        O  0.88934690  0.40902206  0.18048635    -1.13700
O987        O  0.90819534  0.43059753  0.24715689    -0.72900
C988        C  0.88343372  0.45225859  0.24776868     0.97800
C989        C  0.87918872  0.44926998  0.11082107     0.94200
Al990      Al  0.87274600  0.37429201  0.14868372     1.55600
O991        O  0.91716923  0.48294576  0.20050218    -0.77500
C992        C  0.88158123  0.32665331  0.21290070     0.98400
C993        C  0.81593668  0.41425003  0.15235240     0.93300
O994        O  0.83160894  0.44709266  0.15714419    -0.82800
O995        O  0.63301198  0.45079651  0.02625007    -0.82300
C996        C  0.55513840  0.35352684  0.09511181     0.97100
O997        O  0.55246182  0.35465213  0.06300191    -0.71400
O998        O  0.54585907  0.42996984  0.04943231    -0.75000
Al999      Al  0.57301598  0.39150316  0.03559704     1.49000
C1000       C  0.55061675  0.46606700  0.04320480     0.92300
O1001       O  0.60680874  0.46613628  0.10986485    -0.81200
O1002       O  0.66457990  0.37973983  0.09082617    -0.74800
Al1003     Al  0.61962688  0.45656522  0.06865933     1.90100
O1004       O  0.62852680  0.41297671  0.13700928    -0.73900
O1005       O  0.61841892  0.32553723  0.06844009    -0.73700
O1006       O  0.58180926  0.36232460  0.11331863    -0.79400
O1007       O  0.59699504  0.35160652  0.01931653    -0.77600
O1008       O  0.60526948  0.40637925  0.06791386    -1.13700
O1009       O  0.58674999  0.42663750  0.50004652    -0.72900
C1010       C  0.61209173  0.44782747  0.49948653     0.97800
C1011       C  0.61715821  0.44839283  0.13724624     0.94200
Al1012     Al  0.62207385  0.37231342  0.09987863     1.55600
O1013       O  0.57916360  0.48018367  0.04759941    -0.77500
C1014       C  0.61071387  0.32287261  0.03600265     0.98400
C1015       C  0.67912055  0.41312372  0.09492561     0.93300
O1016       O  0.66325038  0.44523950  0.09014936    -0.82800
O1017       O  0.88687296  0.95112200  0.02662825    -0.82300
C1018       C  0.80525667  0.85719341  0.09465674     0.97100
O1019       O  0.80431429  0.85726358  0.06277942    -0.71400
O1020       O  0.79848804  0.93246848  0.04796088    -0.75000
Al1021     Al  0.82609797  0.89353543  0.03606291     1.49000
C1022       C  0.80352218  0.96859056  0.04189967     0.92300
O1023       O  0.85882809  0.97160307  0.10875303    -0.81200
O1024       O  0.91505312  0.88190692  0.09551605    -0.74800
Al1025     Al  0.87245320  0.95918513  0.06845606     1.90100
O1026       O  0.87723545  0.91823245  0.13795576    -0.73900
O1027       O  0.86946811  0.82834371  0.07262889    -0.73700
O1028       O  0.83082343  0.86777449  0.11399026    -0.79400
O1029       O  0.85124691  0.85362991  0.02222088    -0.77600
O1030       O  0.85725033  0.90937565  0.06900391    -1.13700
O1031       O  0.84011262  0.92650082  0.50073264    -0.72900
C1032       C  0.86556469  0.94750518  0.50044210     0.97800
C1033       C  0.86657650  0.95400568  0.13664316     0.94200
Al1034     Al  0.87208463  0.87631215  0.10247691     1.55600
O1035       O  0.83217130  0.98259829  0.04591027    -0.77500
C1036       C  0.86390940  0.82518383  0.04015726     0.98400
C1037       C  0.93055774  0.91452807  0.09796774     0.93300
O1038       O  0.91574577  0.94723975  0.09132919    -0.82800
O1039       O  0.61323142  0.95519038  0.22105428    -0.82300
C1040       C  0.68925624  0.85481870  0.15417828     0.97100
O1041       O  0.69161684  0.85635908  0.18626617    -0.71400
O1042       O  0.70002339  0.93186227  0.19850990    -0.75000
Al1043     Al  0.67190381  0.89460697  0.21303418     1.49000
C1044       C  0.69621706  0.96822911  0.20423508     0.92300
O1045       O  0.64048221  0.96706219  0.13771765    -0.81200
O1046       O  0.58054559  0.88263203  0.15795303    -0.74800
Al1047     Al  0.62709098  0.95938196  0.17883884     1.90100
O1048       O  0.61732721  0.91341259  0.11149124    -0.73900
O1049       O  0.62593535  0.82856837  0.18053162    -0.73700
O1050       O  0.66290609  0.86356987  0.13567173    -0.79400
O1051       O  0.64670102  0.85588008  0.22975609    -0.77600
O1052       O  0.64021948  0.90901472  0.18041297    -1.13700
O1053       O  0.65941769  0.93092561  0.24714182    -0.72900
C1054       C  0.63433238  0.95221305  0.24754817     0.97800
C1055       C  0.63024128  0.94808123  0.11073046     0.94200
Al1056     Al  0.62285749  0.87424726  0.14889067     1.55600
O1057       O  0.66805670  0.98288933  0.19980790    -0.77500
C1058       C  0.63336291  0.82657940  0.21293046     0.98400
C1059       C  0.56676602  0.91616559  0.15335562     0.93300
O1060       O  0.58336475  0.94814568  0.15734986    -0.82800
O1061       O  0.58273350  0.06102213  0.40620143    -0.82300
C1062       C  0.69283578  0.15208487  0.40761195     0.97100
O1063       O  0.66735178  0.14229687  0.38778478    -0.71400
O1064       O  0.62076387  0.09341899  0.36138369    -0.75000
Al1065     Al  0.62607293  0.13310476  0.39867892     1.49000
C1066       C  0.63192404  0.05801064  0.36115566     0.92300
O1067       O  0.66644787  0.02415563  0.45083606    -0.81200
O1068       O  0.65845758  0.07459982  0.99645100    -0.74800
Al1069     Al  0.62605294  0.04819300  0.42894338     1.90100
O1070       O  0.69979845  0.07510523  0.45131067    -0.73900
O1071       O  0.64624404  0.15163823  0.47990651    -0.73700
O1072       O  0.69352854  0.15088319  0.43943628    -0.79400
O1073       O  0.62890059  0.17940337  0.43029909    -0.77600
O1074       O  0.64085401  0.09831111  0.43082427    -1.13700
O1075       O  0.58301874  0.12663844  0.40529158    -0.72900
C1076       C  0.56776964  0.09387107  0.40061851     0.97800
C1077       C  0.69499340  0.03858806  0.45591659     0.94200
Al1078     Al  0.67175007  0.11277339  0.46455348     1.55600
O1079       O  0.64015231  0.03899124  0.38828082    -0.77500
C1080       C  0.63404903  0.18099647  0.46284845     0.98400
C1081       C  0.63357645  0.05254573  0.99696330     0.93300
O1082       O  0.61130457  0.05274897  0.47097259    -0.82800
O1083       O  0.91464871  0.05897917  0.34051400    -0.82300
C1084       C  0.80824863  0.15038217  0.34814857     0.97100
O1085       O  0.83435674  0.14015887  0.36634556    -0.71400
O1086       O  0.88012979  0.08890457  0.38798458    -0.75000
Al1087     Al  0.87434287  0.13102417  0.35254735     1.49000
C1088       C  0.86820327  0.05342125  0.38692507     0.92300
O1089       O  0.83045745  0.02482932  0.29634902    -0.81200
O1090       O  0.83835268  0.08000608  0.25171504    -0.74800
Al1091     Al  0.87114396  0.04809830  0.31847795     1.90100
O1092       O  0.79789020  0.07465056  0.30033697    -0.73900
O1093       O  0.85037839  0.15385340  0.27287714    -0.73700
O1094       O  0.80564212  0.14966538  0.31601889    -0.79400
O1095       O  0.87103884  0.17917306  0.32287936    -0.77600
O1096       O  0.85729779  0.09799552  0.31952526    -1.13700
O1097       O  0.91647493  0.12445908  0.34293231    -0.72900
C1098       C  0.93073595  0.09121063  0.34572411     0.97800
C1099       C  0.80210538  0.03884564  0.29286644     0.94200
Al1100     Al  0.82556473  0.11366105  0.28761025     1.55600
O1101       O  0.85793231  0.03657001  0.35894139    -0.77500
C1102       C  0.86365065  0.18258119  0.29051044     0.98400
C1103       C  0.86389040  0.05985909  0.25050820     0.93300
O1104       O  0.88506655  0.05646797  0.27682839    -0.82800
C1105       C  0.72251415  0.16165250  0.39329906    -0.06000
C1106       C  0.75302528  0.15980511  0.41428068    -0.33400
C1107       C  0.78152166  0.15890988  0.40022627     0.35900
C1108       C  0.77986356  0.16029724  0.36445574    -0.06300
C1109       C  0.74954281  0.16590514  0.34385774    -0.33300
C1110       C  0.72114472  0.16664813  0.35788053     0.35800
H1111       H  0.75481723  0.15634375  0.44155518     0.16100
O1112       O  0.81066468  0.15507838  0.42170975    -0.60800
H1113       H  0.74750081  0.16746881  0.31643530     0.16100
O1114       O  0.69203504  0.16977096  0.33628095    -0.60900
H1115       H  0.68595957  0.19833252  0.33739479     0.43100
H1116       H  0.81234700  0.12616747  0.42752586     0.43100
C1117       C  0.53260813  0.09390191  0.38649920    -0.06000
C1118       C  0.51547098  0.05739463  0.38168653    -0.33400
C1119       C  0.98248523  0.05402046  0.36710037     0.35900
C1120       C  0.96608213  0.09016154  0.35759241    -0.06300
C1121       C  0.98333364  0.12648994  0.36227039    -0.33300
C1122       C  0.51623978  0.12968406  0.37552642     0.35800
H1123       H  0.52753655  0.02942484  0.38922214     0.16100
O1124       O  0.96662381  0.01771515  0.36318193    -0.60800
H1125       H  0.97133853  0.15465993  0.35529991     0.16100
O1126       O  0.53210613  0.16600466  0.37808554    -0.60900
H1127       H  0.52793757  0.17797365  0.39970697     0.43100
H1128       H  0.95918562  0.01283465  0.38515373     0.43100
C1129       C  0.77478905  0.01723640  0.27310718    -0.06000
C1130       C  0.78089432  0.99195587  0.24681707    -0.33400
C1131       C  0.75553698  0.97840871  0.22205758     0.35900
C1132       C  0.72359158  0.99007020  0.22357255    -0.06300
C1133       C  0.71750644  0.01540411  0.24980211    -0.33300
C1134       C  0.74282295  0.02890156  0.27457340     0.35800
H1135       H  0.80549586  0.98407236  0.24451558     0.16100
O1136       O  0.76216434  0.95443482  0.19608780    -0.60800
H1137       H  0.69291495  0.02338720  0.25203831     0.16100
O1138       O  0.73612363  0.05306103  0.30038711    -0.60900
H1139       H  0.73188317  0.07992385  0.29010763     0.43100
H1140       H  0.76694982  0.92766198  0.20634867     0.43100
C1141       C  0.63245782  0.97882770  0.27699869    -0.06000
C1142       C  0.65949266  0.98192730  0.30310953    -0.33400
C1143       C  0.66054204  0.01023273  0.32905201     0.35900
C1144       C  0.63412462  0.03602723  0.32966830    -0.06300
C1145       C  0.60737514  0.03390406  0.30335934    -0.33300
C1146       C  0.60628459  0.00549523  0.27717874     0.35800
H1147       H  0.68028627  0.96277518  0.30323231     0.16100
O1148       O  0.68721441  0.01158322  0.35444498    -0.60800
H1149       H  0.58663159  0.05294411  0.30395294     0.16100
O1150       O  0.57960427  0.00437147  0.25184613    -0.60900
H1151       H  0.56314066  0.98834076  0.26121412     0.43100
H1152       H  0.69926184  0.03622613  0.35013452     0.43100
C1153       C  0.63254039  0.96942617  0.07900685    -0.06000
C1154       C  0.65780881  0.99760437  0.08008930    -0.33400
C1155       C  0.65763161  0.02588397  0.05453918     0.35900
C1156       C  0.63209537  0.02608377  0.02645114    -0.06300
C1157       C  0.60751255  0.99646315  0.02449126    -0.33300
C1158       C  0.60759631  0.96828265  0.05057350     0.35800
H1159       H  0.67745109  0.99866664  0.10169361     0.16100
O1160       O  0.68302331  0.05263240  0.05719160    -0.60800
H1161       H  0.58818582  0.99498180  0.00264668     0.16100
O1162       O  0.58285507  0.94066434  0.04841597    -0.60900
H1163       H  0.56638156  0.95326706  0.06010856     0.43100
H1164       H  0.67580863  0.07657737  0.06853290     0.43100
C1165       C  0.77634991  0.99094764  0.02350944    -0.06000
C1166       C  0.78013001  0.01122015  0.49288640    -0.33400
C1167       C  0.75396216  0.02490070  0.46945107     0.35900
C1168       C  0.72211392  0.01605661  0.47421426    -0.06300
C1169       C  0.71854181  0.99285869  0.00280455    -0.33300
C1170       C  0.74443748  0.98065190  0.02717590     0.35800
H1171       H  0.80453600  0.01650778  0.48808595     0.16100
O1172       O  0.75960082  0.04640570  0.44169833    -0.60800
H1173       H  0.69409331  0.98530260  0.00626668     0.16100
O1174       O  0.73840150  0.95760800  0.05392428    -0.60900
H1175       H  0.74159191  0.97586851  0.07390959     0.43100
H1176       H  0.76580086  0.07373533  0.45046608     0.43100
C1177       C  0.86713256  0.02875274  0.41744840    -0.06000
C1178       C  0.84635509  0.99497779  0.41375518    -0.33400
C1179       C  0.84712156  0.96695225  0.43962539     0.35900
C1180       C  0.86849446  0.97249681  0.47054831    -0.06300
C1181       C  0.88923189  0.00642571  0.47451467    -0.33300
C1182       C  0.88853720  0.03454417  0.44830520     0.35800
H1183       H  0.82950279  0.98974212  0.39028409     0.16100
O1184       O  0.82633056  0.93464839  0.43449620    -0.60800
H1185       H  0.90546487  0.01185811  0.49835016     0.16100
O1186       O  0.90947766  0.06669079  0.45280998    -0.60900
H1187       H  0.89748720  0.08821262  0.46238980     0.43100
H1188       H  0.83817250  0.91380343  0.42389418     0.43100
C1189       C  0.86457615  0.97791157  0.16724638    -0.06000
C1190       C  0.89043377  0.97827668  0.19453245    -0.33400
C1191       C  0.89152192  0.00622516  0.22099819     0.35900
C1192       C  0.86626851  0.03445234  0.22046335    -0.06300
C1193       C  0.84030292  0.03362870  0.19309337    -0.33300
C1194       C  0.83939934  0.00592046  0.16663758     0.35800
H1195       H  0.91040681  0.95776050  0.19478623     0.16100
O1196       O  0.91753539  0.00567406  0.24710572    -0.60800
H1197       H  0.82019790  0.05402692  0.19238681     0.16100
O1198       O  0.81338633  0.00587176  0.14046323    -0.60900
H1199       H  0.81731532  0.02865844  0.12572717     0.43100
H1200       H  0.91240700  0.98436652  0.26271821     0.43100
C1201       C  0.77573232  0.84765978  0.10940718    -0.06000
C1202       C  0.74516955  0.84860741  0.08844803    -0.33400
C1203       C  0.71661868  0.84805845  0.10239401     0.35900
C1204       C  0.71812609  0.84619120  0.13813147    -0.06300
C1205       C  0.74860421  0.84200723  0.15881944    -0.33300
C1206       C  0.77716104  0.84312394  0.14489124     0.35800
H1207       H  0.74330040  0.85233650  0.06119108     0.16100
O1208       O  0.68758551  0.85239442  0.08085519    -0.60800
H1209       H  0.75057857  0.84032619  0.18622983     0.16100
O1210       O  0.80638010  0.84110101  0.16646675    -0.60900
H1211       H  0.81049542  0.86853726  0.17599230     0.43100
H1212       H  0.68088038  0.82484100  0.07312491     0.43100
C1213       C  0.96594452  0.91453423  0.11069722    -0.06000
C1214       C  0.98304590  0.95108123  0.11588510    -0.33400
C1215       C  0.51502105  0.95458832  0.13412265     0.35900
C1216       C  0.53151968  0.91782822  0.14026755    -0.06300
C1217       C  0.51464624  0.88199479  0.13063599    -0.33300
C1218       C  0.98265471  0.87853097  0.11993260     0.35800
H1219       H  0.97081217  0.97915695  0.10918190     0.16100
O1220       O  0.53040474  0.99049519  0.14302341    -0.60800
H1221       H  0.52669671  0.85337866  0.13480103     0.16100
O1222       O  0.96723458  0.84196406  0.11556917    -0.60900
H1223       H  0.96995794  0.83282313  0.09253748     0.43100
H1224       H  0.52838028  0.99483582  0.16718697     0.43100
C1225       C  0.61659089  0.28590070  0.01658358    -0.06000
C1226       C  0.63443131  0.25422748  0.03309595    -0.33400
C1227       C  0.63999516  0.21930799  0.01534416     0.35900
C1228       C  0.62777554  0.21771662  0.48203204    -0.06300
C1229       C  0.62459198  0.25490860  0.46570473    -0.33300
C1230       C  0.62110744  0.29011380  0.48396256     0.35800
H1231       H  0.64444268  0.25656033  0.05995493     0.16100
O1232       O  0.65832592  0.18985954  0.03300755    -0.60800
H1233       H  0.62545352  0.25691768  0.43875066     0.16100
O1234       O  0.61870993  0.32578536  0.46669449    -0.60900
H1235       H  0.64122910  0.33632662  0.46928062     0.43100
H1236       H  0.68100546  0.19621331  0.03057211     0.43100
C1237       C  0.86870043  0.22014496  0.27166991    -0.06000
C1238       C  0.86249114  0.21920543  0.23565631    -0.33400
C1239       C  0.86549751  0.25350064  0.21621617     0.35900
C1240       C  0.87500476  0.29017870  0.23239667    -0.06300
C1241       C  0.88056357  0.29145509  0.26844947    -0.33300
C1242       C  0.87728296  0.25707700  0.28795184     0.35800
H1243       H  0.85526498  0.19150860  0.22211637     0.16100
O1244       O  0.85917427  0.25055602  0.18139100    -0.60800
H1245       H  0.88770056  0.31929675  0.28180429     0.16100
O1246       O  0.88251518  0.26011527  0.32277812    -0.60900
H1247       H  0.86092647  0.26564885  0.32873439     0.43100
H1248       H  0.87994012  0.24232100  0.17477844     0.43100
C1249       C  0.71447114  0.41449412  0.10788938    -0.06000
C1250       C  0.73202785  0.37870710  0.11045624    -0.33400
C1251       C  0.76466184  0.37802160  0.12555451     0.35900
C1252       C  0.78073083  0.41377226  0.13842218    -0.06300
C1253       C  0.76329152  0.44969163  0.13552994    -0.33300
C1254       C  0.73052226  0.45031501  0.12047241     0.35800
H1255       H  0.72036977  0.35080630  0.10098450     0.16100
O1256       O  0.78072451  0.34225003  0.12658637    -0.60800
H1257       H  0.77505387  0.47752839  0.14498839     0.16100
O1258       O  0.71425801  0.48593062  0.11935819    -0.60900
H1259       H  0.71884061  0.49960134  0.09861388     0.43100
H1260       H  0.77644298  0.32881023  0.14755296     0.43100
C1261       C  0.96776210  0.34391804  0.13946911    -0.06000
C1262       C  0.49988187  0.34779539  0.16165204    -0.33400
C1263       C  0.52822806  0.34737419  0.14732625     0.35900
C1264       C  0.52633139  0.34512840  0.11154499    -0.06300
C1265       C  0.99458477  0.34117345  0.08962212    -0.33300
C1266       C  0.96608601  0.34181845  0.10371897     0.35800
H1267       H  0.50208815  0.35180538  0.18893634     0.16100
O1268       O  0.55748212  0.35224421  0.16852915    -0.60800
H1269       H  0.99259386  0.34187317  0.06217387     0.16100
O1270       O  0.93678129  0.34194236  0.08214938    -0.60900
H1271       H  0.93368838  0.37000457  0.07425981     0.43100
H1272       H  0.56304813  0.32528472  0.17804582     0.43100
C1273       C  0.87895598  0.71729757  0.48324273    -0.06000
C1274       C  0.89117370  0.71987465  0.51856124    -0.33400
C1275       C  0.88291946  0.75304102  0.03804350     0.35900
C1276       C  0.87042629  0.78812953  0.02152745    -0.06300
C1277       C  0.86240309  0.78768795  0.98558597    -0.33300
C1278       C  0.86218881  0.75020352  0.46721246     0.35800
H1279       H  0.90448944  0.69516447  0.53166108     0.16100
O1280       O  0.89111927  0.75170997  0.07282851    -0.60800
H1281       H  0.85244774  0.81399932  0.97188955     0.16100
O1282       O  0.84919676  0.74904272  0.43322138    -0.60900
H1283       H  0.86552351  0.76240188  0.42162603     0.43100
H1284       H  0.87111424  0.74281667  0.08094629     0.43100
C1285       C  0.88251471  0.47975190  0.27691161    -0.06000
C1286       C  0.85769620  0.50847683  0.27516128    -0.33400
C1287       C  0.85819318  0.53752784  0.30082761     0.35900
C1288       C  0.88371353  0.53805627  0.32872859    -0.06300
C1289       C  0.90914298  0.51072269  0.32960787    -0.33300
C1290       C  0.90859989  0.48162407  0.30444074     0.35800
H1291       H  0.83777301  0.50846316  0.25387684     0.16100
O1292       O  0.83267309  0.56330848  0.29953604    -0.60800
H1293       H  0.92906453  0.51076952  0.35094420     0.16100
O1294       O  0.93393262  0.45535586  0.30714124    -0.60900
H1295       H  0.92753479  0.43250314  0.32051256     0.43100
H1296       H  0.83707811  0.58511370  0.28404270     0.43100
C1297       C  0.88291361  0.53022367  0.02850666    -0.06000
C1298       C  0.85466992  0.50696465  0.02909050    -0.33400
C1299       C  0.85354053  0.47803013  0.05444843     0.35900
C1300       C  0.88108875  0.47137780  0.07929142    -0.06300
C1301       C  0.90932911  0.49400358  0.07836693    -0.33300
C1302       C  0.91039766  0.52326805  0.05365223     0.35800
H1303       H  0.83332233  0.51127574  0.00989873     0.16100
O1304       O  0.82512569  0.45764165  0.05546493    -0.60800
H1305       H  0.93054452  0.48983597  0.09781025     0.16100
O1306       O  0.93886039  0.54406440  0.05397415    -0.60900
H1307       H  0.93760680  0.56750949  0.06901825     0.43100
H1308       H  0.81420271  0.47298175  0.07154392     0.43100
C1309       C  0.97236274  0.51625229  0.47385695    -0.06000
C1310       C  0.96687135  0.48890539  0.99865080    -0.33400
C1311       C  0.49151500  0.47559268  0.02330468     0.35900
C1312       C  0.52376487  0.48840353  0.02393887    -0.06300
C1313       C  0.52928736  0.51145203  0.49252600    -0.33300
C1314       C  0.00458572  0.52709494  0.47202023     0.35800
H1315       H  0.94207259  0.48007296  0.99963093     0.17700
O1316       O  0.48377528  0.44824588  0.04636238    -0.60800
H1317       H  0.55405027  0.51990743  0.49098430     0.16100
O1318       O  0.01169235  0.55166146  0.44667117    -0.60900
H1319       H  0.01170606  0.53382589  0.42673641     0.43100
H1320       H  0.48122518  0.46423500  0.06671877     0.43100
C1321       C  0.62480063  0.71898453  0.27126154    -0.06000
C1322       C  0.62286468  0.71720351  0.23555343    -0.33400
C1323       C  0.62478866  0.75175316  0.21617833     0.35900
C1324       C  0.62864881  0.78945961  0.23216920    -0.06300
C1325       C  0.63129240  0.79131047  0.26797619    -0.33300
C1326       C  0.62932560  0.75662242  0.28742362     0.35800
H1327       H  0.61955734  0.68871217  0.22225183     0.16100
O1328       O  0.62324941  0.74806177  0.18166828    -0.60800
H1329       H  0.63483902  0.81989453  0.28111277     0.16100
O1330       O  0.63159552  0.76004683  0.32204214    -0.60900
H1331       H  0.60926148  0.76575638  0.32578274     0.43100
H1332       H  0.64609172  0.74549397  0.17832757     0.43100
C1333       C  0.61425477  0.47395615  0.46989448    -0.06000
C1334       C  0.63780776  0.50493613  0.47290953    -0.33400
C1335       C  0.63757334  0.53368981  0.44723094     0.35900
C1336       C  0.61360176  0.53175134  0.41793737    -0.06300
C1337       C  0.58981552  0.50132872  0.41529042    -0.33300
C1338       C  0.59006459  0.47260291  0.44063928     0.35800
H1339       H  0.65633944  0.50722887  0.49542104     0.16100
O1340       O  0.66184511  0.56200572  0.45021776    -0.60800
H1341       H  0.57121004  0.49905325  0.39280815     0.16100
O1342       O  0.56688480  0.44282097  0.43606734    -0.60900
H1343       H  0.54679508  0.45551765  0.44083983     0.43100
H1344       H  0.65339726  0.58537425  0.46125058     0.43100
C1345       C  0.61658554  0.47205132  0.16858311    -0.06000
C1346       C  0.59257755  0.50149452  0.16711870    -0.33400
C1347       C  0.59377671  0.53065729  0.19233261     0.35900
C1348       C  0.61878144  0.53034932  0.22090183    -0.06300
C1349       C  0.64275986  0.50044828  0.22277870    -0.33300
C1350       C  0.64185458  0.47155317  0.19680033     0.35800
H1351       H  0.57298651  0.50272343  0.14550606     0.16100
O1352       O  0.56977893  0.55883317  0.18888392    -0.60800
H1353       H  0.66211842  0.49917116  0.24457614     0.16100
O1354       O  0.66655955  0.44452037  0.19842648    -0.60900
H1355       H  0.65920417  0.42073205  0.20996105     0.43100
H1356       H  0.57842260  0.58181733  0.17738632     0.43100
C1357       C  0.78286105  0.59263720  0.38854413    -0.06000
C1358       C  0.76605965  0.55582124  0.38364165    -0.33400
C1359       C  0.73308224  0.55429807  0.36947899     0.35900
C1360       C  0.71623952  0.59005814  0.35992474    -0.06300
C1361       C  0.73322000  0.62670233  0.36429691    -0.33300
C1362       C  0.76609361  0.62823723  0.37815820     0.35800
H1363       H  0.77849462  0.52796493  0.39072255     0.16100
O1364       O  0.71773795  0.51768817  0.36510250    -0.60800
H1365       H  0.72098388  0.65465375  0.35706650     0.16100
O1366       O  0.78144812  0.66489006  0.38129473    -0.60900
H1367       H  0.78889790  0.66923511  0.35925042     0.43100
H1368       H  0.70990764  0.51243808  0.38679394     0.43100
C1369       C  0.52818308  0.66101391  0.35673128    -0.06000
C1370       C  0.53070505  0.66797097  0.39194111    -0.33400
C1371       C  0.50322327  0.66763198  0.40771317     0.35900
C1372       C  0.97236548  0.66233725  0.39222844    -0.06300
C1373       C  0.96981609  0.66409839  0.35656164    -0.33300
C1374       C  0.99743187  0.66411182  0.34098589     0.35800
H1375       H  0.55433157  0.67166617  0.40773523     0.16100
O1376       O  0.50735092  0.67181819  0.44241538    -0.60800
H1377       H  0.94621353  0.66321569  0.34039861     0.16100
O1378       O  0.99338291  0.66267426  0.30613789    -0.60900
H1379       H  0.99206951  0.69107259  0.29878104     0.43100
H1380       H  0.50600727  0.70102310  0.44649093     0.43100
C1381       C  0.52420589  0.51974459  0.27130938    -0.06000
C1382       C  0.49318851  0.53564453  0.27107860    -0.33400
C1383       C  0.96884303  0.52379831  0.24473162     0.35900
C1384       C  0.97311052  0.48893728  0.22614361    -0.06300
C1385       C  0.00309427  0.46907870  0.23269862    -0.33300
C1386       C  0.52858338  0.48985568  0.24765751     0.35800
H1387       H  0.48951860  0.55917340  0.28880673     0.16100
O1388       O  0.93972068  0.54333071  0.24024207    -0.60800
H1389       H  0.00681277  0.44161060  0.21936553     0.16100
O1390       O  0.55865125  0.47456090  0.24630675    -0.60900
H1391       H  0.55992774  0.44959800  0.25991430     0.43100
H1392       H  0.94252358  0.56661346  0.22556940     0.43100
O1393       O  0.66593607  0.56023723  0.84136123    -0.82300
C1394       C  0.55697270  0.64960963  0.84610699     0.97100
O1395       O  0.58282145  0.63957844  0.86494964    -0.71400
O1396       O  0.62895829  0.58940185  0.88809795    -0.75000
Al1397     Al  0.62367907  0.63126089  0.85252891     1.49000
C1398       C  0.61754785  0.55366902  0.88690264     0.92300
O1399       O  0.58190994  0.52420584  0.79580825    -0.81200
O1400       O  0.59013902  0.57970613  0.75161921    -0.74800
Al1401     Al  0.62251528  0.54808110  0.81852294     1.90100
O1402       O  0.54912735  0.57388303  0.79944161    -0.73900
O1403       O  0.60122339  0.65293528  0.77241316    -0.73700
O1404       O  0.55535132  0.64902845  0.81413923    -0.79400
O1405       O  0.62048216  0.67920782  0.82245207    -0.77600
O1406       O  0.60799751  0.59782969  0.81925190    -1.13700
O1407       O  0.66665610  0.62571232  0.84480114    -0.72900
C1408       C  0.68148215  0.59282813  0.84781550     0.97800
C1409       C  0.55343974  0.53811343  0.79199089     0.94200
Al1410     Al  0.57649854  0.61294756  0.78683929     1.55600
O1411       O  0.60882548  0.53610123  0.85892214    -0.77500
C1412       C  0.61337612  0.68219097  0.78999440     0.98400
C1413       C  0.61588200  0.56020450  0.75023654     0.93300
O1414       O  0.63690690  0.55611353  0.77670683    -0.82800
O1415       O  0.83405534  0.56141639  0.90849808    -0.82300
C1416       C  0.94344458  0.65300307  0.90666297     0.97100
O1417       O  0.91751621  0.64337609  0.88738297    -0.71400
O1418       O  0.87041705  0.59384978  0.86224208    -0.75000
Al1419     Al  0.87659857  0.63375231  0.89957797     1.49000
C1420       C  0.88158616  0.55844259  0.86178072     0.92300
O1421       O  0.91832167  0.52543828  0.95111151    -0.81200
O1422       O  0.90872668  0.57622736  0.49747874    -0.74800
Al1423     Al  0.87774374  0.54912237  0.93014113     1.90100
O1424       O  0.95173459  0.57618677  0.95131424    -0.73900
O1425       O  0.89863572  0.65291274  0.98064463    -0.73700
O1426       O  0.94479279  0.65186923  0.93862331    -0.79400
O1427       O  0.87992418  0.67997635  0.93107351    -0.77600
O1428       O  0.89235719  0.59921660  0.93160029    -1.13700
O1429       O  0.83388585  0.62700106  0.90763999    -0.72900
C1430       C  0.81874596  0.59408116  0.90386595     0.97800
C1431       C  0.94689583  0.53970055  0.95609225     0.94200
Al1432     Al  0.92380398  0.61392395  0.96481121     1.55600
O1433       O  0.89097242  0.53988510  0.88894546    -0.77500
C1434       C  0.88581820  0.68196212  0.96358043     0.98400
C1435       C  0.88330554  0.55506572  0.49762380     0.93300
O1436       O  0.86387100  0.55387045  0.97261426    -0.82800
O1437       O  0.86054173  0.45188391  0.72353248    -0.82300
C1438       C  0.93806084  0.35460737  0.65384454     0.97100
O1439       O  0.94014700  0.35568613  0.68592169    -0.71400
O1440       O  0.94726469  0.43150393  0.69915024    -0.75000
Al1441     Al  0.91975173  0.39331330  0.71308804     1.49000
C1442       C  0.94332727  0.46768224  0.70573165     0.92300
O1443       O  0.88601863  0.46887974  0.63965693    -0.81200
O1444       O  0.82900341  0.38032099  0.65646890    -0.74800
Al1445     Al  0.87365046  0.45816698  0.68084831     1.90100
O1446       O  0.86590964  0.41489721  0.61166285    -0.73900
O1447       O  0.87460895  0.32738307  0.67913006    -0.73700
O1448       O  0.91210637  0.36492065  0.63539630    -0.79400
O1449       O  0.89462085  0.35400923  0.72894958    -0.77600
O1450       O  0.88789975  0.40821867  0.68075946    -1.13700
O1451       O  0.90746635  0.42849362  0.74798813    -0.72900
C1452       C  0.88246784  0.44945082  0.74940800     0.97800
C1453       C  0.87701825  0.45069263  0.61204475     0.94200
Al1454     Al  0.87158790  0.37416640  0.64820283     1.55600
O1455       O  0.91495560  0.48200000  0.70175856    -0.77500
C1456       C  0.88110827  0.32515482  0.71163902     0.98400
C1457       C  0.81411274  0.41306866  0.65353550     0.93300
O1458       O  0.82964928  0.44578283  0.65951012    -0.82800
O1459       O  0.63301003  0.45171245  0.52613775    -0.82300
C1460       C  0.55297437  0.35522851  0.59341223     0.97100
O1461       O  0.55171647  0.35526439  0.56144345    -0.71400
O1462       O  0.54494648  0.43032193  0.54703202    -0.75000
Al1463     Al  0.57293793  0.39230406  0.53460083     1.49000
C1464       C  0.54926403  0.46617934  0.53974264     0.92300
O1465       O  0.60363526  0.46986678  0.60775510    -0.81200
O1466       O  0.66226074  0.38241208  0.59313685    -0.74800
Al1467     Al  0.61805401  0.45878477  0.56763670     1.90100
O1468       O  0.62479023  0.41769536  0.63668859    -0.73900
O1469       O  0.61731254  0.32788458  0.57049537    -0.73700
O1470       O  0.57859477  0.36619307  0.61249067    -0.79400
O1471       O  0.59849603  0.35314733  0.52020614    -0.77600
O1472       O  0.60390571  0.40854561  0.56757349    -1.13700
O1473       O  0.58621207  0.42633753  0.00084991    -0.72900
C1474       C  0.61162366  0.44731719  0.99992263     0.97800
C1475       C  0.61388709  0.45343838  0.63572262     0.94200
Al1476     Al  0.61954147  0.37564356  0.60072612     1.55600
O1477       O  0.57756821  0.48125297  0.54460191    -0.77500
C1478       C  0.61211431  0.32516717  0.53796216     0.98400
C1479       C  0.67707723  0.41554527  0.59686363     0.93300
O1480       O  0.66156851  0.44791822  0.59097292    -0.82800
O1481       O  0.88597924  0.95207643  0.52733283    -0.82300
C1482       C  0.80522169  0.85587951  0.59382824     0.97100
O1483       O  0.80425427  0.85611542  0.56189746    -0.71400
O1484       O  0.79718618  0.93100148  0.54621721    -0.75000
Al1485     Al  0.82580244  0.89267457  0.53509804     1.49000
C1486       C  0.80191744  0.96724405  0.54034514     0.92300
O1487       O  0.85618028  0.97027354  0.60871001    -0.81200
O1488       O  0.91428378  0.88258734  0.59376956    -0.74800
Al1489     Al  0.87069099  0.95918662  0.56853213     1.90100
O1490       O  0.87700415  0.91756824  0.63730697    -0.73900
O1491       O  0.86937740  0.82794933  0.57206336    -0.73700
O1492       O  0.83071231  0.86666857  0.61326514    -0.79400
O1493       O  0.85175346  0.85322899  0.52161715    -0.77600
O1494       O  0.85632731  0.90900538  0.56839769    -1.13700
O1495       O  0.84010435  0.92693357  0.00130896    -0.72900
C1496       C  0.86571624  0.94724984  0.00017211     0.97800
C1497       C  0.86536581  0.95281695  0.63646416     0.94200
Al1498     Al  0.87176398  0.87593952  0.60161403     1.55600
O1499       O  0.83036609  0.98187415  0.54530456    -0.77500
C1500       C  0.86404064  0.82467899  0.53966445     0.98400
C1501       C  0.92936233  0.91551686  0.59686751     0.93300
O1502       O  0.91406930  0.94812435  0.59175614    -0.82800
O1503       O  0.61256163  0.95042776  0.72056662    -0.82300
C1504       C  0.68856563  0.85185088  0.65213367     0.97100
O1505       O  0.69044182  0.85267707  0.68414083    -0.71400
O1506       O  0.69952429  0.92812249  0.69728376    -0.75000
Al1507     Al  0.67106829  0.89083020  0.71110963     1.49000
C1508       C  0.69596549  0.96426558  0.70409859     0.92300
O1509       O  0.63948020  0.96585824  0.63738042    -0.81200
O1510       O  0.57972150  0.88028924  0.65491780    -0.74800
Al1511     Al  0.62635212  0.95638274  0.67837584     1.90100
O1512       O  0.61725214  0.91254937  0.60971892    -0.73900
O1513       O  0.62412951  0.82576332  0.67783278    -0.73700
O1514       O  0.66248959  0.86134111  0.63343657    -0.79400
O1515       O  0.64545251  0.85274160  0.72700888    -0.77600
O1516       O  0.63947316  0.90610338  0.67865005    -1.13700
O1517       O  0.65902343  0.92629798  0.74591527    -0.72900
C1518       C  0.63373621  0.94689377  0.74694151     0.97800
C1519       C  0.62939478  0.94781376  0.60987637     0.94200
Al1520     Al  0.62214779  0.87213274  0.64643548     1.55600
O1521       O  0.66779380  0.97916219  0.69991450    -0.77500
C1522       C  0.63104373  0.82406985  0.71035817     0.98400
C1523       C  0.56577491  0.91373560  0.65143875     0.93300
O1524       O  0.58228484  0.94575956  0.65657384    -0.82800
O1525       O  0.58291731  0.05389173  0.90561621    -0.82300
C1526       C  0.69002751  0.14868307  0.90371054     0.97100
O1527       O  0.66405292  0.13842897  0.88496302    -0.71400
O1528       O  0.61863008  0.08708820  0.86081162    -0.75000
Al1529     Al  0.62383848  0.12776808  0.89760299     1.49000
C1530       C  0.63119719  0.05236266  0.86066370     0.92300
O1531       O  0.66813214  0.02119219  0.95086497    -0.81200
O1532       O  0.65760897  0.07703406  0.49755668    -0.74800
Al1533     Al  0.62700680  0.04337626  0.92858397     1.90100
O1534       O  0.69999862  0.07304809  0.94916921    -0.73900
O1535       O  0.64586237  0.14864005  0.97806057    -0.73700
O1536       O  0.69189524  0.14811183  0.93575538    -0.79400
O1537       O  0.62635023  0.17492725  0.92852868    -0.77600
O1538       O  0.64046351  0.09407808  0.92967265    -1.13700
O1539       O  0.58184434  0.11943287  0.90644264    -0.72900
C1540       C  0.56729208  0.08637094  0.90058049     0.97800
C1541       C  0.69629312  0.03676591  0.95547621     0.94200
Al1542     Al  0.67156057  0.11011398  0.96248937     1.55600
O1543       O  0.64123881  0.03429114  0.88792016    -0.77500
C1544       C  0.63295051  0.17757767  0.96100984     0.98400
C1545       C  0.63231677  0.05572059  0.49766039     0.93300
O1546       O  0.61246200  0.04852046  0.97046672    -0.82800
O1547       O  0.91483190  0.06047270  0.84081973    -0.82300
C1548       C  0.80607535  0.14979530  0.84487326     0.97100
O1549       O  0.83163216  0.13963481  0.86418363    -0.71400
O1550       O  0.87845044  0.08982095  0.88769195    -0.75000
Al1551     Al  0.87263641  0.13143817  0.85196214     1.49000
C1552       C  0.86756384  0.05389754  0.88677372     0.92300
O1553       O  0.83078521  0.02421251  0.79587730    -0.81200
O1554       O  0.83916663  0.07941026  0.75093375    -0.74800
Al1555     Al  0.87139317  0.04819086  0.81828708     1.90100
O1556       O  0.79761422  0.07411238  0.79769352    -0.73900
O1557       O  0.85130474  0.15304891  0.77168787    -0.73700
O1558       O  0.80492766  0.14948460  0.81294558    -0.79400
O1559       O  0.86958406  0.17922304  0.82204827    -0.77600
O1560       O  0.85689986  0.09786166  0.81870958    -1.13700
O1561       O  0.91548835  0.12602039  0.84401950    -0.72900
C1562       C  0.93029745  0.09315210  0.84695667     0.97800
C1563       C  0.80224824  0.03797763  0.79144843     0.94200
Al1564     Al  0.82577927  0.11314200  0.78582062     1.55600
O1565       O  0.85796186  0.03647689  0.85888266    -0.77500
C1566       C  0.86392905  0.18193825  0.78956669     0.98400
C1567       C  0.86463173  0.05921851  0.75004990     0.93300
O1568       O  0.88569269  0.05600707  0.77652485    -0.82800
C1569       C  0.71890603  0.15815583  0.88788497    -0.06000
C1570       C  0.74915886  0.16497145  0.90859875    -0.33400
C1571       C  0.77781483  0.16504466  0.89476395     0.35900
C1572       C  0.77656407  0.15882028  0.85947951    -0.06300
C1573       C  0.74615493  0.15542436  0.83848572    -0.33300
C1574       C  0.71759963  0.15488454  0.85224836     0.35800
H1575       H  0.75090274  0.16797126  0.93591867     0.16100
O1576       O  0.80693790  0.17020613  0.91614154    -0.60800
H1577       H  0.74445331  0.15053612  0.81135695     0.16100
O1578       O  0.68882512  0.14799910  0.83068393    -0.60900
H1579       H  0.68205297  0.17457041  0.82106795     0.43100
H1580       H  0.81181187  0.14380400  0.92713223     0.43100
C1581       C  0.53245200  0.08638725  0.88528951    -0.06000
C1582       C  0.51351275  0.05140348  0.88491850    -0.33400
C1583       C  0.98137305  0.05876644  0.87498286     0.35900
C1584       C  0.96560230  0.09307251  0.85976098    -0.06300
C1585       C  0.98344929  0.12876004  0.85919576    -0.33300
C1586       C  0.51818261  0.12112916  0.86909631     0.35800
H1587       H  0.52407532  0.02418696  0.89655447     0.16100
O1588       O  0.96467423  0.02359901  0.87727065    -0.60800
H1589       H  0.97183541  0.15557871  0.84789394     0.16100
O1590       O  0.53614631  0.15519201  0.86638692    -0.60900
H1591       H  0.53165587  0.17317527  0.88483584     0.43100
H1592       H  0.95568104  0.02592526  0.89864773     0.43100
C1593       C  0.77497508  0.01509522  0.77257740    -0.06000
C1594       C  0.78103413  0.98788137  0.74759449    -0.33400
C1595       C  0.75561869  0.97289062  0.72347381     0.35900
C1596       C  0.72363266  0.98548218  0.72399178    -0.06300
C1597       C  0.71759976  0.01224830  0.74926479    -0.33300
C1598       C  0.74292052  0.02682663  0.77359282     0.35800
H1599       H  0.80564457  0.97950790  0.74577759     0.16100
O1600       O  0.76232019  0.94667528  0.69903964    -0.60800
H1601       H  0.69302905  0.02083752  0.75101452     0.16100
O1602       O  0.73613896  0.05223828  0.79853690    -0.60900
H1603       H  0.73081521  0.07828163  0.78708089     0.43100
H1604       H  0.76604112  0.92045833  0.71068057     0.43100
C1605       C  0.63173040  0.97242001  0.77695879    -0.06000
C1606       C  0.65977643  0.97844217  0.80138675    -0.33400
C1607       C  0.66050604  0.00692836  0.82716641     0.35900
C1608       C  0.63279535  0.02994303  0.82924876    -0.06300
C1609       C  0.60476565  0.02431410  0.80494160    -0.33300
C1610       C  0.60397756  0.99567110  0.77902079     0.35800
H1611       H  0.68161351  0.96170446  0.80012395     0.16100
O1612       O  0.68827412  0.01129464  0.85087093    -0.60800
H1613       H  0.58299147  0.04082985  0.80696241     0.16100
O1614       O  0.57593746  0.99082881  0.75586381    -0.60900
H1615       H  0.56466419  0.96754816  0.76413318     0.43100
H1616       H  0.69759523  0.03766970  0.84602173     0.43100
C1617       C  0.63110628  0.97092590  0.57872949    -0.06000
C1618       C  0.65571695  0.00015333  0.58065121    -0.33400
C1619       C  0.65529786  0.02915648  0.55560251     0.35900
C1620       C  0.63031280  0.02901504  0.52697124    -0.06300
C1621       C  0.60607704  0.99889235  0.52441037    -0.33300
C1622       C  0.60624964  0.97013104  0.55015855     0.35800
H1623       H  0.67512219  0.00135075  0.60247771     0.16100
O1624       O  0.67997698  0.05699326  0.55926707    -0.60800
H1625       H  0.58702901  0.99739925  0.50230852     0.16100
O1626       O  0.58168457  0.94223127  0.54753571    -0.60900
H1627       H  0.56460373  0.95494286  0.55828505     0.43100
H1628       H  0.67228843  0.07965224  0.57184219     0.43100
C1629       C  0.77483924  0.98923666  0.52136603    -0.06000
C1630       C  0.78179041  0.01480677  0.99615082    -0.33400
C1631       C  0.75580405  0.02769109  0.97211028     0.35900
C1632       C  0.72394674  0.01631833  0.97518363    -0.06300
C1633       C  0.71687092  0.99380774  0.50256787    -0.33300
C1634       C  0.74299672  0.98086006  0.52634378     0.35800
H1635       H  0.80626541  0.02180118  0.99238414     0.16100
O1636       O  0.76172818  0.05047701  0.94516710    -0.60800
H1637       H  0.69247469  0.98823982  0.50724954     0.16100
O1638       O  0.73723045  0.95970758  0.55421142    -0.60900
H1639       H  0.74001976  0.97945068  0.57317483     0.43100
H1640       H  0.76697841  0.07772400  0.95463052     0.43100
C1641       C  0.86674571  0.02965012  0.91752150    -0.06000
C1642       C  0.84248803  0.99998146  0.91577452    -0.33400
C1643       C  0.84300040  0.97150020  0.94132641     0.35900
C1644       C  0.86798981  0.97230950  0.96994393    -0.06300
C1645       C  0.89244003  0.00205575  0.97172849    -0.33300
C1646       C  0.89187250  0.03065085  0.94583673     0.35800
H1647       H  0.82304650  0.99844919  0.89400322     0.16100
O1648       O  0.81831684  0.94371053  0.93830150    -0.60800
H1649       H  0.91174043  0.00375120  0.99358878     0.16100
O1650       O  0.91668534  0.05811422  0.94775902    -0.60900
H1651       H  0.90911073  0.08201885  0.95884566     0.43100
H1652       H  0.82592164  0.92070005  0.92610244     0.43100
C1653       C  0.86405208  0.97636148  0.66736347    -0.06000
C1654       C  0.89110448  0.97841056  0.69335455    -0.33400
C1655       C  0.89257945  0.00670548  0.71965099     0.35900
C1656       C  0.86663260  0.03357033  0.72010710    -0.06300
C1657       C  0.83951081  0.03098922  0.69404334    -0.33300
C1658       C  0.83810178  0.00284112  0.66792057     0.35800
H1659       H  0.91163090  0.95904564  0.69262669     0.16100
O1660       O  0.91965811  0.00803366  0.74447982    -0.60800
H1661       H  0.81881450  0.05023713  0.69417814     0.16100
O1662       O  0.81089408  0.00086096  0.64321175    -0.60900
H1663       H  0.81274898  0.02392177  0.62798451     0.43100
H1664       H  0.91622500  0.98672851  0.76083415     0.43100
C1665       C  0.77576774  0.84582231  0.60854142    -0.06000
C1666       C  0.74533188  0.84455886  0.58728337    -0.33400
C1667       C  0.71660208  0.84339688  0.60093225     0.35900
C1668       C  0.71780756  0.84335257  0.63663499    -0.06300
C1669       C  0.74826248  0.84125652  0.65773807    -0.33300
C1670       C  0.77697141  0.84282861  0.64411977     0.35800
H1671       H  0.74361633  0.84685670  0.55992929     0.16100
O1672       O  0.68756373  0.84502260  0.57903366    -0.60800
H1673       H  0.75003459  0.84095346  0.68516670     0.16100
O1674       O  0.80605625  0.84283727  0.66605991    -0.60900
H1675       H  0.80939978  0.87085496  0.67440937     0.43100
H1676       H  0.68222801  0.81681719  0.57223386     0.43100
C1677       C  0.96473497  0.91571590  0.60906939    -0.06000
C1678       C  0.98117702  0.95211015  0.61799525    -0.33400
C1679       C  0.51369541  0.95130373  0.63059755     0.35900
C1680       C  0.53028102  0.91500595  0.63901571    -0.06300
C1681       C  0.51301776  0.87872661  0.63292040    -0.33300
C1682       C  0.98195769  0.87947743  0.61467244     0.35800
H1683       H  0.96855334  0.98034972  0.61379120     0.16100
O1684       O  0.52955230  0.98754831  0.63541214    -0.60800
H1685       H  0.52504259  0.85037262  0.63895071     0.16100
O1686       O  0.96741835  0.84315508  0.60547059    -0.60900
H1687       H  0.97065720  0.83861376  0.58167459     0.43100
H1688       H  0.52618666  0.99690450  0.65816828     0.43100
C1689       C  0.61999514  0.28873174  0.51937348    -0.06000
C1690       C  0.62357317  0.25164486  0.53578891    -0.33400
C1691       C  0.62758378  0.21648797  0.51762388     0.35900
C1692       C  0.62709693  0.21476876  0.98010464    -0.06300
C1693       C  0.60928631  0.24645079  0.96352525    -0.33300
C1694       C  0.60410664  0.28165765  0.98119235     0.35800
H1695       H  0.62252331  0.24965196  0.56269844     0.16100
O1696       O  0.63035981  0.18086092  0.53494204    -0.60800
H1697       H  0.59922452  0.24401440  0.93668066     0.16100
O1698       O  0.58609186  0.31134251  0.96348813    -0.60900
H1699       H  0.60172974  0.32722442  0.95274142     0.43100
H1700       H  0.65355292  0.17919155  0.54548515     0.43100
C1701       C  0.87008951  0.21900637  0.77086510    -0.06000
C1702       C  0.87099510  0.21609725  0.73566261    -0.33400
C1703       C  0.87349646  0.25016804  0.71578846     0.35900
C1704       C  0.87499122  0.28842256  0.73076345    -0.06300
C1705       C  0.87419739  0.29141809  0.76600586    -0.33300
C1706       C  0.87169271  0.25726512  0.78592641     0.35800
H1707       H  0.86976241  0.18704506  0.72326810     0.16100
O1708       O  0.87514898  0.24550536  0.68194290    -0.60800
H1709       H  0.87557053  0.32052519  0.77832243     0.16100
O1710       O  0.87039264  0.26181371  0.81986535    -0.60900
H1711       H  0.84696295  0.26299034  0.82114448     0.43100
H1712       H  0.89863876  0.24463718  0.68091574     0.43100
C1713       C  0.71233310  0.41589446  0.61041475    -0.06000
C1714       C  0.72889808  0.37931134  0.61437753    -0.33400
C1715       C  0.76154620  0.37771798  0.62930616     0.35900
C1716       C  0.77866489  0.41328779  0.64065757    -0.06300
C1717       C  0.76205743  0.44989314  0.63688944    -0.33300
C1718       C  0.72929602  0.45143793  0.62188966     0.35800
H1719       H  0.71649605  0.35148820  0.60594866     0.16100
O1720       O  0.77655146  0.34118725  0.63165622    -0.60800
H1721       H  0.77456847  0.47765239  0.64525866     0.16100
O1722       O  0.71404794  0.48779277  0.61939270    -0.60900
H1723       H  0.71694322  0.49855990  0.59693044     0.43100
H1724       H  0.77372034  0.33041525  0.65413128     0.43100
C1725       C  0.96660337  0.34415664  0.63756375    -0.06000
C1726       C  0.49723069  0.34460444  0.65876416    -0.33400
C1727       C  0.52555292  0.34423557  0.64452877     0.35900
C1728       C  0.52379686  0.34551689  0.60876658    -0.06300
C1729       C  0.99324168  0.34507699  0.58745732    -0.33300
C1730       C  0.96489477  0.34619458  0.60178536     0.35800
H1731       H  0.49945730  0.34618622  0.68621542     0.16100
O1732       O  0.55483137  0.34539688  0.66608104    -0.60800
H1733       H  0.99125367  0.34937024  0.56025148     0.16100
O1734       O  0.93580143  0.35120581  0.58048119    -0.60900
H1735       H  0.93437537  0.38038705  0.57575469     0.43100
H1736       H  0.56190748  0.31712368  0.66838475     0.43100
C1737       C  0.87938038  0.71856723  0.98282623    -0.06000
C1738       C  0.88739817  0.71887650  0.01880328    -0.33400
C1739       C  0.88685510  0.75434554  0.53753672     0.35900
C1740       C  0.87014028  0.78727977  0.52134922    -0.06300
C1741       C  0.85789891  0.78448538  0.48610803    -0.33300
C1742       C  0.86671027  0.75358816  0.96640561     0.35800
H1743       H  0.89733096  0.69244699  0.03233221     0.16100
O1744       O  0.89979614  0.75575843  0.57153767    -0.60800
H1745       H  0.84456064  0.80903998  0.47279332     0.16100
O1746       O  0.85796816  0.75485357  0.93166347    -0.60900
H1747       H  0.87641232  0.76812173  0.92339140     0.43100
H1748       H  0.88309897  0.74340183  0.58323442     0.43100
C1749       C  0.88163087  0.47672997  0.77884393    -0.06000
C1750       C  0.85554351  0.50343578  0.77839524    -0.33400
C1751       C  0.85609893  0.53288708  0.80377287     0.35900
C1752       C  0.88290961  0.53590306  0.83020312    -0.06300
C1753       C  0.90922746  0.51012047  0.83013342    -0.33300
C1754       C  0.90877610  0.48079483  0.80505929     0.35800
H1755       H  0.83463564  0.50163830  0.75824174     0.16100
O1756       O  0.82954136  0.55669869  0.80366510    -0.60800
H1757       H  0.93001916  0.51187912  0.85047588     0.16100
O1758       O  0.93539868  0.45680981  0.80629964    -0.60900
H1759       H  0.93102986  0.43327908  0.82002642     0.43100
H1760       H  0.83441677  0.58163738  0.79195830     0.43100
C1761       C  0.88039522  0.52959152  0.52753355    -0.06000
C1762       C  0.85640169  0.49913754  0.52485737    -0.33400
C1763       C  0.85559194  0.47162035  0.55137897     0.35900
C1764       C  0.87920694  0.47394518  0.58096852    -0.06300
C1765       C  0.90323371  0.50405195  0.58340011    -0.33300
C1766       C  0.90393984  0.53163777  0.55733259     0.35800
H1767       H  0.83829385  0.49638299  0.50203461     0.16100
O1768       O  0.83119878  0.44346774  0.54846644    -0.60800
H1769       H  0.92147145  0.50679200  0.60615752     0.16100
O1770       O  0.92751704  0.56093354  0.56169054    -0.60900
H1771       H  0.94743903  0.54762490  0.55707190     0.43100
H1772       H  0.81351535  0.45641666  0.55809455     0.43100
C1773       C  0.97377645  0.51671030  0.97454064    -0.06000
C1774       C  0.96576216  0.49152258  0.50023568    -0.33400
C1775       C  0.49033125  0.47352562  0.51885665     0.35900
C1776       C  0.52243005  0.48634883  0.51859530    -0.06300
C1777       C  0.53073482  0.51677894  0.00026368    -0.33300
C1778       C  0.00608182  0.52887974  0.97452165     0.35800
H1779       H  0.94098430  0.48443547  0.50284102     0.17700
O1780       O  0.48290175  0.44836876  0.54365983    -0.60800
H1781       H  0.55552236  0.52598181  0.99963332     0.16100
O1782       O  0.01364029  0.55571827  0.95098163    -0.60900
H1783       H  0.01953410  0.53905271  0.93234684     0.43100
H1784       H  0.47832704  0.46627639  0.56212416     0.43100
C1785       C  0.61724154  0.71970821  0.77081825    -0.06000
C1786       C  0.60344480  0.72116449  0.73579849    -0.33400
C1787       C  0.60695282  0.75483125  0.71581377     0.35900
C1788       C  0.62444111  0.78832244  0.73051970    -0.06300
C1789       C  0.63720055  0.78747478  0.76583241    -0.33300
C1790       C  0.63357946  0.75381566  0.78585951     0.35800
H1791       H  0.58980772  0.69586980  0.72345710     0.16100
O1792       O  0.59279689  0.75470057  0.68214108    -0.60800
H1793       H  0.65063571  0.81290219  0.77818654     0.16100
O1794       O  0.64692346  0.75435696  0.81975843    -0.60900
H1795       H  0.62977794  0.76524933  0.83147672     0.43100
H1796       H  0.60861166  0.74134272  0.67002809     0.43100
C1797       C  0.61396223  0.47317748  0.97014409    -0.06000
C1798       C  0.63818504  0.50334301  0.97293960    -0.33400
C1799       C  0.63871766  0.53160731  0.94703832     0.35900
C1800       C  0.61504521  0.52982273  0.91752752    -0.06300
C1801       C  0.59070276  0.50005341  0.91488573    -0.33300
C1802       C  0.58986845  0.47216200  0.94077271     0.35800
H1803       H  0.65666204  0.50545242  0.99550792     0.16100
O1804       O  0.66343385  0.55931841  0.95007441    -0.60800
H1805       H  0.57229080  0.49798765  0.89222291     0.16100
O1806       O  0.56560437  0.44375323  0.93673601    -0.60900
H1807       H  0.54640351  0.45754783  0.94281792     0.43100
H1808       H  0.65496981  0.58338075  0.96015152     0.43100
C1809       C  0.61447850  0.47898712  0.66626668    -0.06000
C1810       C  0.59369565  0.51227753  0.66351485    -0.33400
C1811       C  0.59590335  0.54091173  0.68933938     0.35900
C1812       C  0.61843621  0.53614274  0.71951922    -0.06300
C1813       C  0.63992496  0.50349101  0.72203437    -0.33300
C1814       C  0.63812760  0.47514043  0.69565463     0.35800
H1815       H  0.57576403  0.51661852  0.64079216     0.16100
O1816       O  0.57542573  0.57308371  0.68490163    -0.60800
H1817       H  0.65761977  0.49917856  0.74492478     0.16100
O1818       O  0.66038872  0.44491061  0.69830995    -0.60900
H1819       H  0.65079947  0.42282291  0.71000067     0.43100
H1820       H  0.58839533  0.59527039  0.67734928     0.43100
C1821       C  0.78326431  0.59370502  0.89141020    -0.06000
C1822       C  0.76763971  0.55760389  0.87969541    -0.33400
C1823       C  0.73479861  0.55677823  0.86490115     0.35900
C1824       C  0.71680216  0.59258314  0.86135476    -0.06300
C1825       C  0.73238694  0.62858234  0.87342602    -0.33300
C1826       C  0.76515755  0.62941276  0.88824495     0.35800
H1827       H  0.78102818  0.52982352  0.88141945     0.16100
O1828       O  0.72082851  0.52082977  0.85348960    -0.60800
H1829       H  0.71908798  0.65642860  0.87171640     0.16100
O1830       O  0.77899842  0.66532273  0.90001227    -0.60900
H1831       H  0.78455815  0.67896357  0.87967293     0.43100
H1832       H  0.71372815  0.50849135  0.87361819     0.43100
C1833       C  0.52821126  0.65959698  0.86194361    -0.06000
C1834       C  0.53105046  0.65878729  0.89767345    -0.33400
C1835       C  0.50367431  0.66048189  0.91352134     0.35900
C1836       C  0.97271144  0.66257082  0.89133224    -0.06300
C1837       C  0.97000852  0.66373672  0.85560730    -0.33300
C1838       C  0.99756309  0.66348271  0.83991695     0.35800
H1839       H  0.55451568  0.65470485  0.91354304     0.16100
O1840       O  0.50772528  0.65624993  0.94819123    -0.60800
H1841       H  0.94635845  0.66255609  0.83955153     0.16100
O1842       O  0.99344516  0.66157780  0.80507894    -0.60900
H1843       H  0.99457598  0.68979652  0.79758821     0.43100
H1844       H  0.50921262  0.68399491  0.95735187     0.43100
C1845       C  0.52560956  0.51650040  0.77281427    -0.06000
C1846       C  0.49457343  0.53235803  0.77263624    -0.33400
C1847       C  0.96733048  0.52320138  0.74455168     0.35900
C1848       C  0.97141479  0.48963844  0.72434948    -0.06300
C1849       C  0.00203149  0.47147275  0.72785903    -0.33300
C1850       C  0.52993815  0.48679140  0.74896150     0.35800
H1851       H  0.49077958  0.55551995  0.79064036     0.16100
O1852       O  0.93786733  0.54159524  0.74237457    -0.60800
H1853       H  0.00573800  0.44541561  0.71273199     0.16100
O1854       O  0.55993257  0.47119196  0.74773124    -0.60900
H1855       H  0.56222787  0.44845881  0.76390388     0.43100
H1856       H  0.93739364  0.56179290  0.72407289     0.43100
loop_ 
_geom_bond_atom_site_label_1 
_geom_bond_atom_site_label_2 
_geom_bond_distance 
_geom_bond_site_symmetry_2 
_ccdc_geom_bond_type 
O1           C16   1.267       .  A
O1           Al9   1.932       .  S
C2           O12   1.266       .  A
C2            O3   1.256       .  A
C2          C441   1.493       .  S
O3           Al5   1.884       .  S
O4            C6   1.278       .  A
O4           Al5   1.986       .  S
Al5          O13   1.996       .  S
Al5          O15   1.877       .  S
Al5          O14   1.767       .  S
C6           O19   1.254       .  A
C6          C408   1.480       .  S
O7           C17   1.269       .  A
O7           Al9   1.949       .  S
O8           C21   1.272       .  A
O8          Al18   1.950       .  S
Al9          O22   1.883       .  S
Al9          O19   1.842       .  S
Al9          O14   1.774       .  S
O10          C17   1.253       .  A
O10         Al18   1.861       .  S
O11          C20   1.256       .  A
O11         Al18   1.855       .  S
O12         Al18   1.942       .  S
O13          C20   1.282       .  A
O14         Al18   1.762       .  S
O15          C16   1.259       .  A
C16         C432   1.477       .  S
C17         C453   1.470       .  S
C20         C393   1.498       .  S
C21          O22   1.260       .  A
C21         C420   1.483       .  S
O23          C38   1.262       .  A
O23         Al31   1.914       .  S
C24          O34   1.264       .  A
C24          O25   1.256       .  A
C24         C444   1.492       .  S
O25         Al27   1.884       .  S
O26          C28   1.274       .  A
O26         Al27   1.969       .  S
Al27         O35   1.967       .  S
Al27         O37   1.887       .  S
Al27         O36   1.766       .  S
C28          O41   1.252       .  A
C28         C360   1.466       .  S
O29          C39   1.264       .  A
O29         Al31   1.919       .  S
O30          C43   1.272       .  A
O30        Al504   1.951       .  S
Al31         O44   1.883       .  S
Al31         O41   1.832       .  S
Al31         O36   1.774       .  S
O32          C39   1.253       .  A
O32         Al40   1.867       .  S
O33          C42   1.258       .  A
O33         Al40   1.865       .  S
O34         Al40   1.935       .  S
O35          C42   1.278       .  A
O36         Al40   1.768       .  S
O37          C38   1.260       .  A
C38         C429   1.473       .  S
C39         C381   1.452       .  S
Al40        O494   1.951       .  S
C42         C345   1.491       .  S
C43         O508   1.263       .  A
C43         C369   1.490   1_556  S
O44         C507   1.262       .  A
O45          C60   1.261       .  A
O45         Al53   1.884       .  S
C46          O56   1.255       .  A
C46          O47   1.265       .  A
C46         C333   1.490       .  S
O47         Al49   1.935       .  S
O48          C50   1.253       .  A
O48         Al49   1.860       .  S
Al49         O57   1.856       .  S
Al49         O59   1.939       .  S
Al49         O58   1.764       .  S
C50          O63   1.267       .  A
C50         C456   1.461       .  S
O51          C61   1.254       .  A
O51         Al53   1.844       .  S
O52          C65   1.257       .  A
O52         Al62   1.874       .  S
Al53         O66   1.924       .  S
Al53         O63   1.940       .  S
Al53         O58   1.775       .  S
O54          C61   1.277       .  A
O54         Al62   1.980       .  S
O55          C64   1.280       .  A
O55         Al62   1.979       .  S
O56         Al62   1.881       .  S
O57          C64   1.256       .  A
O58         Al62   1.764       .  S
O59          C60   1.270       .  A
C60         C357   1.480       .  S
C61         C372   1.476       .  S
C64         C312   1.493       .  S
C65          O66   1.265       .  A
C65         C324   1.479       .  S
O67         C546   1.262       .  A
O67         Al75   1.887       .  S
C68          O78   1.255       .  A
C68          O69   1.267       .  A
C68         C336   1.490       .  S
O69         Al71   1.943       .  S
O70          C72   1.253       .  A
O70         Al71   1.863       .  S
Al71         O79   1.848       .  S
Al71        O545   1.947       .  S
Al71         O80   1.762       .  S
C72          O85   1.266       .  A
C72         C384   1.459       .  S
O73          C83   1.254       .  A
O73         Al75   1.841       .  S
O74          C87   1.259       .  A
O74         Al84   1.876       .  S
Al75         O88   1.927       .  S
Al75         O85   1.936       .  S
Al75         O80   1.772       .  S
O76          C83   1.277       .  A
O76         Al84   1.982       .  S
O77          C86   1.278       .  A
O77         Al84   1.983       .  S
O78         Al84   1.873       .  S
O79          C86   1.254       .  A
O80         Al84   1.768       .  S
O81          C82   1.274       .  A
O81        Al535   1.955       .  S
C82         O531   1.262       .  A
C82         C405   1.488       .  S
C83         C417   1.479       .  S
C86         C297   1.484       .  S
C87          O88   1.265       .  A
C87         C321   1.478       .  S
O89         C568   1.262   1_554  A
O89         Al97   1.888       .  S
C90         O100   1.255       .  A
C90          O91   1.265       .  A
C90         C273   1.485       .  S
O91         Al93   1.933       .  S
O92          C94   1.253       .  A
O92         Al93   1.861       .  S
Al93        O101   1.849       .  S
Al93        O567   1.933   1_554  S
Al93        O102   1.760       .  S
C94         O107   1.268       .  A
C94         C237   1.457       .  S
O95         C105   1.256       .  A
O95         Al97   1.856       .  S
O96         C109   1.256       .  A
O96        Al106   1.868       .  S
Al97        O110   1.939       .  S
Al97        O107   1.943       .  S
Al97        O102   1.776       .  S
O98         C105   1.275       .  A
O98        Al106   1.968       .  S
O99         C108   1.277       .  A
O99        Al106   1.977       .  S
O100       Al106   1.875       .  S
O101        C108   1.254       .  A
O102       Al106   1.763       .  S
O103        C104   1.274       .  A
O103       Al557   1.958       .  S
C104        O553   1.261       .  A
C104        C252   1.487       .  S
C105        C261   1.470       .  S
C108        C348   1.490       .  S
C109        O110   1.268       .  A
C109        C285   1.480       .  S
O111        C126   1.260       .  A
O111       Al119   1.879       .  S
C112        O122   1.254       .  A
C112        O113   1.267       .  A
C112        C276   1.486       .  S
O113       Al115   1.938       .  S
O114        C116   1.251       .  A
O114       Al115   1.863       .  S
Al115       O123   1.859       .  S
Al115       O125   1.963       .  S
Al115       O124   1.763       .  S
C116        O129   1.267       .  A
C116        C204   1.459       .  S
O117        C127   1.254       .  A
O117       Al119   1.839       .  S
O118        C131   1.261       .  A
O118       Al128   1.881       .  S
Al119       O132   1.924       .  S
Al119       O129   1.935       .  S
Al119       O124   1.769       .  S
O120        C127   1.279       .  A
O120       Al128   1.994       .  S
O121        C130   1.282       .  A
O121       Al128   1.996       .  S
O122       Al128   1.875       .  S
O123        C130   1.256       .  A
O124       Al128   1.765       .  S
O125        C126   1.275       .  A
C126        C213   1.487       .  S
C127        C225   1.483       .  S
C130        C396   1.498       .  S
C131        O132   1.265       .  A
C131        C288   1.480       .  S
O133        C148   1.269       .  A
O133       Al141   1.936       .  S
C134        O144   1.267       .  A
C134        O135   1.255       .  A
C134        C177   1.484       .  S
O135       Al137   1.871       .  S
O136        C138   1.276       .  A
O136       Al137   1.980       .  S
Al137       O145   1.986       .  S
Al137       O147   1.862       .  S
Al137       O146   1.766       .  S
C138        O151   1.253       .  A
C138        C216   1.475       .  S
O139        C149   1.267       .  A
O139       Al141   1.937       .  S
O140        C153   1.273       .  A
O140       Al614   1.956       .  S
Al141       O154   1.893       .  S
Al141       O151   1.850       .  S
Al141       O146   1.776       .  S
O142        C149   1.252       .  A
O142       Al150   1.857       .  S
O143        C152   1.255       .  A
O143       Al150   1.858       .  S
O144       Al150   1.943       .  S
O145        C152   1.279       .  A
O146       Al150   1.758       .  S
O147        C148   1.257       .  A
C148        C189   1.477       .  S
C149        C240   1.457       .  S
Al150       O604   1.943       .  S
C152        C300   1.491       .  S
C153        O618   1.261       .  A
C153        C228   1.490   1_556  S
O154        C617   1.262       .  A
O155        C170   1.263       .  A
O155       Al163   1.917       .  S
C156        O166   1.265       .  A
C156        O157   1.255       .  A
C156        C180   1.489       .  S
O157       Al159   1.882       .  S
O158        C160   1.277       .  A
O158       Al159   1.978       .  S
Al159       O167   1.980       .  S
Al159       O169   1.891       .  S
Al159       O168   1.766       .  S
C160        O173   1.257       .  A
C160        C249   1.477       .  S
O161        C171   1.265       .  A
O161       Al163   1.941       .  S
O162        C175   1.275       .  A
O162       Al172   1.958       .  S
Al163       O176   1.881       .  S
Al163       O173   1.846       .  S
Al163       O168   1.776       .  S
O164        C171   1.249       .  A
O164       Al172   1.859       .  S
O165        C174   1.255       .  A
O165       Al172   1.848       .  S
O166       Al172   1.933       .  S
O167        C174   1.279       .  A
O168       Al172   1.760       .  S
O169        C170   1.261       .  A
C170        C192   1.481       .  S
C171        C201   1.462       .  S
C174        C309   1.493       .  S
C175        O176   1.262       .  A
C175        C264   1.484       .  S
C177        C178   1.402       .  A
C177        C182   1.413       .  A
C178        C179   1.402       .  A
C178        H183   1.083       .  S
C179        C180   1.417       .  A
C179        O184   1.372       .  S
C180        C181   1.404       .  A
C181        C182   1.400       .  A
C181        H185   1.083       .  S
C182        O186   1.372       .  S
O184        H188   0.993       .  S
O186        H187   0.991       .  S
C189        C190   1.403       .  A
C189        C194   1.414       .  A
C190       C1119   1.398   1_455  A
C190        H195   1.083       .  S
C191        C192   1.413       .  A
C191       C1118   1.399       .  A
C191        O196   1.372       .  S
C192        C193   1.403       .  A
C193       C1122   1.397       .  A
C193        H197   1.084       .  S
C194       C1121   1.391   1_455  A
C194        O198   1.372       .  S
O196        H200   0.992       .  S
O198        H199   0.992       .  S
C201        C202   1.402   1_545  A
C201        C206   1.411       .  A
C202        C203   1.393       .  A
C202        H207   1.084       .  S
C203        C204   1.410       .  A
C203        O208   1.374       .  S
C204        C205   1.399   1_565  A
C205        C206   1.388       .  A
C205        H209   1.084       .  S
C206        O210   1.373       .  S
O208        H212   0.992       .  S
O210        H211   0.993       .  S
C213        C214   1.403       .  A
C213        C218   1.418   1_565  A
C214        C215   1.397   1_565  A
C214        H219   1.084       .  S
C215        C216   1.411       .  A
C215        O220   1.372       .  S
C216        C217   1.400       .  A
C217        C218   1.404       .  A
C217        H221   1.084       .  S
C218        O222   1.372       .  S
O220        H224   0.991       .  S
O222        H223   0.992   1_545  S
C225        C226   1.408   1_565  A
C225        C230   1.406       .  A
C226        C227   1.393       .  A
C226        H231   1.084       .  S
C227        C228   1.409       .  A
C227        O232   1.372       .  S
C228        C229   1.415       .  A
C229        C230   1.409   1_545  A
C229        H233   1.083   1_545  S
C230        O234   1.371       .  S
O232        H236   0.992       .  S
O234        H235   0.992       .  S
C237        C242   1.408       .  A
C237        C702   1.401   1_564  A
C238        C239   1.391       .  A
C238        C701   1.400   1_545  A
C238        H243   1.084       .  S
C239        C240   1.409       .  A
C239        O244   1.373       .  S
C240        C705   1.400   1_545  A
C241        C242   1.391   1_556  A
C241        C704   1.400   1_565  A
C241        H245   1.084   1_556  S
C242        O246   1.372       .  S
O244        H248   0.991       .  S
O246        H247   0.992       .  S
C249        C250   1.406       .  A
C249        C254   1.404       .  A
C250        C251   1.393   1_545  A
C250        H255   1.084       .  S
C251        C252   1.408       .  A
C251        O256   1.371       .  S
C252        C253   1.414   1_565  A
C253        C254   1.406       .  A
C253        H257   1.083       .  S
C254        O258   1.371       .  S
O256        H260   0.991       .  S
O258        H259   0.992       .  S
C261        C262   1.399       .  A
C261        C266   1.408   1_565  A
C262        C263   1.402   1_565  A
C262        H267   1.084       .  S
C263        C264   1.417       .  A
C263        O268   1.372       .  S
C264        C265   1.405       .  A
C265        C266   1.397       .  A
C265        H269   1.083       .  S
C266        O270   1.373       .  S
O268        H272   0.992   1_545  S
O270        H271   0.992       .  S
C273        C274   1.404       .  A
C273        C278   1.414       .  A
C274        C275   1.400       .  A
C274        H279   1.084       .  S
C275        C276   1.416       .  A
C275        O280   1.372       .  S
C276        C277   1.403       .  A
C277        C278   1.400       .  A
C277        H281   1.083       .  S
C278        O282   1.372       .  S
O280        H284   0.992       .  S
O282        H283   0.992       .  S
C285        C286   1.404       .  A
C285        C290   1.414       .  A
C286       C1215   1.400       .  A
C286        H291   1.083       .  S
C287        C288   1.412       .  A
C287       C1214   1.399   1_455  A
C287        O292   1.372       .  S
C288        C289   1.403       .  A
C289       C1218   1.394   1_455  A
C289        H293   1.084       .  S
C290       C1217   1.393       .  A
C290        O294   1.372       .  S
O292        H296   0.992       .  S
O294        H295   0.992       .  S
C297        C298   1.399       .  A
C297        C766   1.418   1_554  A
C298        C299   1.403       .  A
C298        H303   1.084       .  S
C299        C764   1.419   1_554  A
C299        O304   1.373       .  S
C300        C301   1.400       .  A
C300        C763   1.420       .  A
C301        C302   1.403       .  A
C301        H305   1.084       .  S
C302        C761   1.420       .  A
C302        O306   1.372       .  S
O304        H308   0.992       .  S
O306        H307   0.992       .  S
C309        C310   1.415       .  A
C309        C314   1.405       .  A
C310        C311   1.401       .  A
C310        H315   1.083       .  S
C311        C312   1.405       .  A
C311        O316   1.371       .  S
C312        C313   1.416       .  A
C313        C314   1.404       .  A
C313        H317   1.083       .  S
C314        O318   1.371       .  S
O316        H320   0.992       .  S
O318        H319   0.992       .  S
C321        C322   1.404       .  A
C321        C326   1.411       .  A
C322        C323   1.394       .  A
C322        H327   1.084       .  S
C323        C324   1.413       .  A
C323        O328   1.372       .  S
C324        C325   1.404       .  A
C325        C326   1.398       .  A
C325        H329   1.083       .  S
C326        O330   1.371       .  S
O328        H332   0.991       .  S
O330        H331   0.992       .  S
C333        C338   1.414       .  A
C333       C1262   1.404       .  A
C334        C335   1.400   1_655  A
C334       C1261   1.403       .  A
C334        H339   1.083   1_655  S
C335        C336   1.416       .  A
C335        O340   1.372       .  S
C336       C1265   1.404   1_455  A
C337        C338   1.402       .  A
C337       C1264   1.405       .  A
C337        H341   1.083       .  S
C338        O342   1.372       .  S
O340        H344   0.991       .  S
O342        H343   0.993       .  S
C345        C346   1.414       .  A
C345        C350   1.405       .  A
C346        C811   1.405       .  A
C346        H351   1.083       .  S
C347        C348   1.405       .  A
C347        C810   1.404       .  A
C347        O352   1.371       .  S
C348        C349   1.414   1_554  A
C349        C814   1.399       .  A
C349        H353   1.083       .  S
C350        C813   1.400       .  A
C350        O354   1.372       .  S
O352        H356   0.991       .  S
O354        H355   0.991       .  S
C357        C358   1.412       .  A
C357        C362   1.410       .  A
C358        C359   1.403       .  A
C358        H363   1.083       .  S
C359        C360   1.402       .  A
C359        O364   1.371       .  S
C360        C361   1.403       .  A
C361        C362   1.390       .  A
C361        H365   1.085       .  S
C362        O366   1.372       .  S
O364        H368   0.992       .  S
O366        H367   0.992       .  S
C369        C370   1.413       .  A
C369        C374   1.412       .  A
C370        C371   1.406       .  A
C370        H375   1.083       .  S
C371        C372   1.405       .  A
C371        O376   1.371       .  S
C372        C373   1.405       .  A
C373        C374   1.396       .  A
C373        H377   1.084       .  S
C374        O378   1.373       .  S
O376        H380   0.992       .  S
O378        H379   0.992       .  S
C381        C386   1.407       .  A
C381        C846   1.399       .  A
C382        C845   1.401       .  A
C382       C1311   1.389   1_556  A
C382        H387   1.084       .  S
C383        C384   1.408   1_655  A
C383       C1310   1.390   1_554  A
C383        O388   1.372       .  S
C384        C849   1.402   1_554  A
C385        C848   1.402       .  A
C385       C1314   1.390       .  A
C385        H389   1.084       .  S
C386       C1313   1.390       .  A
C386        O390   1.373       .  S
O388        H392   0.992       .  S
O390        H391   0.992       .  S
C393        C394   1.415       .  A
C393        C398   1.406       .  A
C394        C395   1.405       .  A
C394        H399   1.083       .  S
C395        C396   1.405       .  A
C395        O400   1.371       .  S
C396        C397   1.416       .  A
C397        C398   1.407       .  A
C397        H401   1.083       .  S
C398        O402   1.371       .  S
O400        H404   0.992       .  S
O402        H403   0.992       .  S
C405        C406   1.414       .  A
C405        C410   1.410       .  A
C406        C407   1.407       .  A
C406        H411   1.083       .  S
C407        C408   1.405       .  A
C407        O412   1.371       .  S
C408        C409   1.406       .  A
C409        C410   1.395       .  A
C409        H413   1.084       .  S
C410        O414   1.372       .  S
O412        H416   0.993       .  S
O414        H415   0.993       .  S
C417        C418   1.408       .  A
C417        C422   1.405       .  A
C418        C419   1.392       .  A
C418        H423   1.084       .  S
C419        C420   1.407       .  A
C419        O424   1.372       .  S
C420        C421   1.413       .  A
C421        C422   1.406       .  A
C421        H425   1.083       .  S
C422        O426   1.371       .  S
O424        H428   0.992       .  S
O426        H427   0.991       .  S
C429        C430   1.406       .  A
C429        C434   1.406       .  A
C430        C431   1.399       .  A
C430        H435   1.084       .  S
C431        C432   1.408       .  A
C431        O436   1.372       .  S
C432        C433   1.406       .  A
C433        C434   1.396       .  A
C433        H437   1.084       .  S
C434        O438   1.372       .  S
O436        H440   0.991       .  S
O438        H439   0.991       .  S
C441        C442   1.409       .  A
C441       C1374   1.411   1_455  A
C442        C443   1.403       .  A
C442        H447   1.083       .  S
C443       C1372   1.411   1_455  A
C443        O448   1.371       .  S
C444        C445   1.410       .  A
C444       C1371   1.411       .  A
C445        C446   1.402       .  A
C445        H449   1.083       .  S
C446       C1369   1.409       .  A
C446        O450   1.372       .  S
O448        H452   0.991       .  S
O450        H451   0.991       .  S
C453        C454   1.408   1_455  A
C453        C458   1.405       .  A
C454       C1383   1.393       .  A
C454        H459   1.084       .  S
C455        C456   1.407       .  A
C455       C1382   1.391       .  A
C455        O460   1.372       .  S
C456        C457   1.405       .  A
C457       C1386   1.389       .  A
C457        H461   1.084       .  S
C458       C1385   1.392       .  A
C458        O462   1.372       .  S
O460        H464   0.991       .  S
O462        H463   0.992       .  S
O465        C480   1.268       .  A
O465       Al473   1.942       .  S
C466        O476   1.268       .  A
C466        O467   1.257       .  A
C466        C905   1.491       .  S
O467       Al469   1.877       .  S
O468        C470   1.277       .  A
O468       Al469   1.982       .  S
Al469       O477   1.991       .  S
Al469       O479   1.875       .  S
Al469       O478   1.765       .  S
C470        O483   1.255       .  A
C470        C872   1.479       .  S
O471        C481   1.268       .  A
O471       Al473   1.949       .  S
O472        C485   1.273       .  A
O472       Al482   1.950       .  S
Al473       O486   1.879       .  S
Al473       O483   1.846       .  S
Al473       O478   1.774       .  S
O474        C481   1.251       .  A
O474       Al482   1.856       .  S
O475        C484   1.254       .  A
O475       Al482   1.854       .  S
O476       Al482   1.947       .  S
O477        C484   1.279       .  A
O478       Al482   1.758       .  S
O479        C480   1.261       .  A
C480        C896   1.483       .  S
C481        C917   1.467       .  S
C484        C857   1.495       .  S
C485        O486   1.260       .  A
C485        C884   1.478       .  S
O487        C502   1.266       .  A
O487       Al495   1.930       .  S
C488        O498   1.266       .  A
C488        O489   1.256       .  A
C488        C908   1.490       .  S
O489       Al491   1.881       .  S
O490        C492   1.274       .  A
O490       Al491   1.972       .  S
Al491       O499   1.971       .  S
Al491       O501   1.881       .  S
Al491       O500   1.769       .  S
C492        O505   1.254       .  A
C492        C824   1.476       .  S
O493        C503   1.266       .  A
O493       Al495   1.930       .  S
O494        C507   1.273       .  A
Al495       O508   1.891       .  S
Al495       O505   1.850       .  S
Al495       O500   1.773       .  S
O496        C503   1.252       .  A
O496       Al504   1.863       .  S
O497        C506   1.257       .  A
O497       Al504   1.862       .  S
O498       Al504   1.938       .  S
O499        C506   1.278       .  A
O500       Al504   1.767       .  S
O501        C502   1.260       .  A
C502        C893   1.483       .  S
C503        C845   1.458       .  S
C506        C809   1.491       .  S
C507        C833   1.485       .  S
O509        C524   1.262       .  A
O509       Al517   1.887       .  S
C510        O520   1.254       .  A
C510        O511   1.268       .  A
C510        C797   1.489       .  S
O511       Al513   1.946       .  S
O512        C514   1.252       .  A
O512       Al513   1.859       .  S
Al513       O521   1.858       .  S
Al513       O523   1.955       .  S
Al513       O522   1.760       .  S
C514        O527   1.269       .  A
C514        C920   1.463       .  S
O515        C525   1.253       .  A
O515       Al517   1.843       .  S
O516        C529   1.258       .  A
O516       Al526   1.873       .  S
Al517       O530   1.943       .  S
Al517       O527   1.946       .  S
Al517       O522   1.773       .  S
O518        C525   1.275       .  A
O518       Al526   1.972       .  S
O519        C528   1.278       .  A
O519       Al526   1.978       .  S
O520       Al526   1.875       .  S
O521        C528   1.256       .  A
O522       Al526   1.766       .  S
O523        C524   1.272       .  A
C524        C821   1.489       .  S
C525        C836   1.472       .  S
C528        C776   1.481       .  S
C529        O530   1.269       .  A
C529        C788   1.484       .  S
O531       Al539   1.886       .  S
C532        O542   1.257       .  A
C532        O533   1.268       .  A
C532        C800   1.494       .  S
O533       Al535   1.944       .  S
O534        C536   1.253       .  A
O534       Al535   1.868       .  S
Al535       O543   1.855       .  S
Al535       O544   1.763       .  S
C536        O549   1.265       .  A
C536        C848   1.456       .  S
O537        C547   1.254       .  A
O537       Al539   1.838       .  S
O538        C551   1.261       .  A
O538       Al548   1.888       .  S
Al539       O552   1.925       .  S
Al539       O549   1.932       .  S
Al539       O544   1.773       .  S
O540        C547   1.278       .  A
O540       Al548   1.983       .  S
O541        C550   1.280       .  A
O541       Al548   1.985       .  S
O542       Al548   1.889       .  S
O543        C550   1.255       .  A
O544       Al548   1.770       .  S
O545        C546   1.272       .  A
C546        C869   1.486   1_554  S
C547        C881   1.484       .  S
C550        C761   1.490       .  S
C551        O552   1.264       .  A
C551        C785   1.482       .  S
O553       Al561   1.880       .  S
C554        O564   1.254       .  A
C554        O555   1.268       .  A
C554        C737   1.494       .  S
O555       Al557   1.948       .  S
O556        C558   1.251       .  A
O556       Al557   1.859       .  S
Al557       O565   1.856       .  S
Al557       O566   1.762       .  S
C558        O571   1.267       .  A
C558        C701   1.459       .  S
O559        C569   1.251       .  A
O559       Al561   1.836       .  S
O560        C573   1.257       .  A
O560       Al570   1.872       .  S
Al561       O574   1.942       .  S
Al561       O571   1.939       .  S
Al561       O566   1.775       .  S
O562        C569   1.275       .  A
O562       Al570   1.970       .  S
O563        C572   1.277       .  A
O563       Al570   1.974       .  S
O564       Al570   1.874       .  S
O565        C572   1.257       .  A
O566       Al570   1.764       .  S
O567        C568   1.270       .  A
C568        C716   1.479       .  S
C569        C725   1.463       .  S
C572        C812   1.491       .  S
C573        O574   1.268       .  A
C573        C749   1.485       .  S
O575        C590   1.259       .  A
O575       Al583   1.879       .  S
C576        O586   1.256       .  A
C576        O577   1.268       .  A
C576        C740   1.490       .  S
O577       Al579   1.942       .  S
O578        C580   1.252       .  A
O578       Al579   1.862       .  S
Al579       O587   1.865       .  S
Al579       O589   1.961       .  S
Al579       O588   1.766       .  S
C580        O593   1.265       .  A
C580        C668   1.453       .  S
O581        C591   1.254       .  A
O581       Al583   1.841       .  S
O582        C595   1.261       .  A
O582       Al592   1.881       .  S
Al583       O596   1.915       .  S
Al583       O593   1.923       .  S
Al583       O588   1.768       .  S
O584        C591   1.276       .  A
O584       Al592   1.985       .  S
O585        C594   1.281       .  A
O585       Al592   1.986       .  S
O586       Al592   1.883       .  S
O587        C594   1.257       .  A
O588       Al592   1.765       .  S
O589        C590   1.273       .  A
C590        C677   1.485       .  S
C591        C689   1.479       .  S
C594        C860   1.494       .  S
C595        O596   1.263       .  A
C595        C752   1.476       .  S
O597        C612   1.268       .  A
O597       Al605   1.936       .  S
C598        O608   1.268       .  A
C598        O599   1.256       .  A
C598        C641   1.495       .  S
O599       Al601   1.888       .  S
O600        C602   1.274       .  A
O600       Al601   1.970       .  S
Al601       O609   1.981       .  S
Al601       O611   1.877       .  S
Al601       O610   1.768       .  S
C602        O615   1.254       .  A
C602        C680   1.468       .  S
O603        C613   1.269       .  A
O603       Al605   1.948       .  S
O604        C617   1.271       .  A
Al605       O618   1.890       .  S
Al605       O615   1.848       .  S
Al605       O610   1.774       .  S
O606        C613   1.251       .  A
O606       Al614   1.857       .  S
O607        C616   1.254       .  A
O607       Al614   1.851       .  S
O608       Al614   1.948       .  S
O609        C616   1.279       .  A
O610       Al614   1.760       .  S
O611        C612   1.259       .  A
C612        C653   1.482       .  S
C613        C704   1.456       .  S
C616        C764   1.484       .  S
C617        C692   1.490       .  S
O619        C634   1.261       .  A
O619       Al627   1.915       .  S
C620        O630   1.269       .  A
C620        O621   1.257       .  A
C620        C644   1.499       .  S
O621       Al623   1.887       .  S
O622        C624   1.276       .  A
O622       Al623   1.970       .  S
Al623       O631   1.978       .  S
Al623       O633   1.895       .  S
Al623       O632   1.762       .  S
C624        O637   1.255       .  A
C624        C713   1.469       .  S
O625        C635   1.264       .  A
O625       Al627   1.927       .  S
O626        C639   1.274       .  A
O626       Al636   1.956       .  S
Al627       O640   1.872       .  S
Al627       O637   1.842       .  S
Al627       O632   1.770       .  S
O628        C635   1.252       .  A
O628       Al636   1.860       .  S
O629        C638   1.253       .  A
O629       Al636   1.850       .  S
O630       Al636   1.949       .  S
O631        C638   1.277       .  A
O632       Al636   1.764       .  S
O633        C634   1.263       .  A
C634        C656   1.478       .  S
C635        C665   1.456       .  S
C638        C773   1.480       .  S
C639        O640   1.258       .  A
C639        C728   1.478       .  S
C641        C642   1.403       .  A
C641        C646   1.416       .  A
C642        C643   1.405       .  A
C642        H647   1.083       .  S
C643        C644   1.418       .  A
C643        O648   1.372       .  S
C644        C645   1.406       .  A
C645        C646   1.406       .  A
C645        H649   1.083       .  S
C646        O650   1.371       .  S
O648        H652   0.992       .  S
O650        H651   0.992       .  S
C653        C654   1.404       .  A
C653        C658   1.414       .  A
C654       C1583   1.399   1_455  A
C654        H659   1.083       .  S
C655       C1582   1.403       .  A
C655        C656   1.415       .  A
C655        O660   1.372       .  S
C656        C657   1.398       .  A
C657       C1586   1.393       .  A
C657        H661   1.084       .  S
C658       C1585   1.396   1_455  A
C658        O662   1.372       .  S
O660        H664   0.992       .  S
O662        H663   0.992       .  S
C665        C666   1.402   1_545  A
C665        C670   1.407       .  A
C666        C667   1.390       .  A
C666        H671   1.084       .  S
C667        C668   1.407       .  A
C667        O672   1.374       .  S
C668        C669   1.400   1_565  A
C669        C670   1.387       .  A
C669        H673   1.084       .  S
C670        O674   1.373       .  S
O672        H676   0.992       .  S
O674        H675   0.992       .  S
C677        C678   1.405       .  A
C677        C682   1.417   1_565  A
C678        C679   1.397   1_565  A
C678        H683   1.084       .  S
C679        C680   1.410       .  A
C679        O684   1.373       .  S
C680        C681   1.398       .  A
C681        C682   1.402       .  A
C681        H685   1.084       .  S
C682        O686   1.371   1_545  S
O684        H688   0.992       .  S
O686        H687   0.992       .  S
C689        C690   1.404       .  A
C689        C694   1.407       .  A
C690        C691   1.391   1_565  A
C690        H695   1.084       .  S
C691        C692   1.411       .  A
C691        O696   1.372       .  S
C692        C693   1.414   1_545  A
C693        C694   1.410       .  A
C693        H697   1.083       .  S
C694        O698   1.372       .  S
O696        H700   0.992       .  S
O698        H699   0.992       .  S
C701        C706   1.411       .  A
C702        C703   1.393       .  A
C702        H707   1.084       .  S
C703        C704   1.408       .  A
C703        O708   1.373       .  S
C705        C706   1.389       .  A
C705        H709   1.084       .  S
C706        O710   1.373       .  S
O708        H712   0.992       .  S
O710        H711   0.992       .  S
C713        C714   1.403   1_545  A
C713        C718   1.404       .  A
C714        C715   1.391       .  A
C714        H719   1.084       .  S
C715        C716   1.410       .  A
C715        O720   1.372       .  S
C716        C717   1.410   1_565  A
C717        C718   1.401       .  A
C717        H721   1.083       .  S
C718        O722   1.371       .  S
O720        H724   0.992       .  S
O722        H723   0.991       .  S
C725        C726   1.397       .  A
C725        C730   1.409       .  A
C726        C727   1.400   1_565  A
C726        H731   1.084       .  S
C727        C728   1.417       .  A
C727        O732   1.372       .  S
C728        C729   1.403       .  A
C729        C730   1.393   1_545  A
C729        H733   1.084       .  S
C730        O734   1.373       .  S
O732        H736   0.993   1_545  S
O734        H735   0.992   1_565  S
C737        C738   1.406       .  A
C737        C742   1.418       .  A
C738        C739   1.405       .  A
C738        H743   1.083       .  S
C739        C740   1.416       .  A
C739        O744   1.372       .  S
C740        C741   1.402       .  A
C741        C742   1.401       .  A
C741        H745   1.083       .  S
C742        O746   1.372       .  S
O744        H748   0.992       .  S
O746        H747   0.992       .  S
C749        C750   1.406       .  A
C749        C754   1.414       .  A
C750       C1679   1.402       .  A
C750        H755   1.083       .  S
C751       C1678   1.399   1_455  A
C751        C752   1.413       .  A
C751        O756   1.372       .  S
C752        C753   1.402       .  A
C753       C1682   1.391   1_455  A
C753        H757   1.083       .  S
C754       C1681   1.394       .  A
C754        O758   1.372       .  S
O756        H760   0.992       .  S
O758        H759   0.991       .  S
C761        C762   1.399       .  A
C762        C763   1.404       .  A
C762        H767   1.083       .  S
C763        O768   1.372       .  S
C764        C765   1.398       .  A
C765        C766   1.401       .  A
C765        H769   1.084       .  S
C766        O770   1.372       .  S
O768        H772   0.992       .  S
O770        H771   0.992       .  S
C773        C774   1.410       .  A
C773        C778   1.404       .  A
C774        C775   1.402       .  A
C774        H779   1.084       .  S
C775        C776   1.405       .  A
C775        O780   1.372       .  S
C776        C777   1.410       .  A
C777        C778   1.402       .  A
C777        H781   1.084       .  S
C778        O782   1.371       .  S
O780        H784   0.992       .  S
O782        H783   0.992       .  S
C785        C786   1.402       .  A
C785        C790   1.414       .  A
C786        C787   1.395       .  A
C786        H791   1.084       .  S
C787        C788   1.415       .  A
C787        O792   1.372       .  S
C788        C789   1.405       .  A
C789        C790   1.402       .  A
C789        H793   1.083       .  S
C790        O794   1.372       .  S
O792        H796   0.991       .  S
O794        H795   0.992       .  S
C797       C1726   1.402       .  A
C797        C802   1.416       .  A
C798       C1725   1.406       .  A
C798        C799   1.406   1_655  A
C798        H803   1.083       .  S
C799        C800   1.415       .  A
C799        O804   1.371       .  S
C800       C1729   1.403   1_455  A
C801       C1728   1.404       .  A
C801        C802   1.404       .  A
C801        H805   1.083       .  S
C802        O806   1.373       .  S
O804        H808   0.992       .  S
O806        H807   0.992       .  S
C809        C810   1.415   1_556  A
C809        C814   1.404       .  A
C810        H815   1.083       .  S
C811        C812   1.406       .  A
C811        O816   1.371       .  S
C812        C813   1.412       .  A
C813        H817   1.083       .  S
C814        O818   1.371       .  S
O816        H820   0.991       .  S
O818        H819   0.992       .  S
C821        C822   1.413       .  A
C821        C826   1.411       .  A
C822        C823   1.405       .  A
C822        H827   1.083       .  S
C823        C824   1.404       .  A
C823        O828   1.371       .  S
C824        C825   1.405       .  A
C825        C826   1.395       .  A
C825        H829   1.084       .  S
C826        O830   1.372       .  S
O828        H832   0.992       .  S
O830        H831   0.991       .  S
C833        C834   1.413       .  A
C833        C838   1.410       .  A
C834        C835   1.403       .  A
C834        H839   1.083       .  S
C835        C836   1.403       .  A
C835        O840   1.372       .  S
C836        C837   1.405       .  A
C837        C838   1.394       .  A
C837        H841   1.084       .  S
C838        O842   1.372       .  S
O840        H844   0.992       .  S
O842        H843   0.992       .  S
C845        C850   1.408       .  A
C846       C1775   1.386       .  A
C846        H851   1.084       .  S
C847       C1774   1.390       .  A
C847        C848   1.406   1_655  A
C847        O852   1.372       .  S
C849       C1778   1.392       .  A
C849        H853   1.084       .  S
C850       C1777   1.391   1_556  A
C850        O854   1.373       .  S
O852        H856   0.992       .  S
O854        H855   0.991       .  S
C857        C858   1.414       .  A
C857        C862   1.406       .  A
C858        C859   1.402       .  A
C858        H863   1.084       .  S
C859        C860   1.406       .  A
C859        O864   1.371       .  S
C860        C861   1.415       .  A
C861        C862   1.407       .  A
C861        H865   1.083       .  S
C862        O866   1.371       .  S
O864        H868   0.992       .  S
O866        H867   0.992       .  S
C869        C870   1.413       .  A
C869        C874   1.410       .  A
C870        C871   1.406       .  A
C870        H875   1.083       .  S
C871        C872   1.405       .  A
C871        O876   1.371       .  S
C872        C873   1.406       .  A
C873        C874   1.394       .  A
C873        H877   1.084       .  S
C874        O878   1.372       .  S
O876        H880   0.992       .  S
O878        H879   0.992       .  S
C881        C882   1.412       .  A
C881        C886   1.407       .  A
C882        C883   1.391       .  A
C882        H887   1.083       .  S
C883        C884   1.401       .  A
C883        O888   1.372       .  S
C884        C885   1.412       .  A
C885        C886   1.406       .  A
C885        H889   1.083       .  S
C886        O890   1.371       .  S
O888        H892   0.992       .  S
O890        H891   0.992       .  S
C893        C894   1.407       .  A
C893        C898   1.411       .  A
C894        C895   1.402       .  A
C894        H899   1.083       .  S
C895        C896   1.411       .  A
C895        O900   1.372       .  S
C896        C897   1.405       .  A
C897        C898   1.393       .  A
C897        H901   1.083       .  S
C898        O902   1.372       .  S
O900        H904   0.992       .  S
O902        H903   0.993       .  S
C905        C906   1.409       .  A
C905       C1838   1.410   1_455  A
C906        C907   1.401       .  A
C906        H911   1.083       .  S
C907       C1836   1.411   1_455  A
C907        O912   1.371       .  S
C908       C1835   1.410       .  A
C908        C909   1.409       .  A
C909        C910   1.403       .  A
C909        H913   1.083       .  S
C910       C1833   1.411       .  A
C910        O914   1.371       .  S
O912        H916   0.991       .  S
O914        H915   0.992       .  S
C917        C918   1.408   1_455  A
C917        C922   1.405       .  A
C918       C1847   1.392       .  A
C918        H923   1.084       .  S
C919       C1846   1.389       .  A
C919        C920   1.406       .  A
C919        O924   1.372       .  S
C920        C921   1.406       .  A
C921       C1850   1.391       .  A
C921        H925   1.084       .  S
C922       C1849   1.391       .  A
C922        O926   1.372       .  S
O924        H928   0.991       .  S
O926        H927   0.993       .  S
O929        C944   1.267       .  A
O929       Al937   1.932       .  S
C930        O940   1.268       .  A
C930        O931   1.257       .  A
C930       C1369   1.487       .  S
O931       Al933   1.878       .  S
O932        C934   1.275       .  A
O932       Al933   1.975       .  S
Al933       O941   1.982       .  S
Al933       O943   1.873       .  S
Al933       O942   1.768       .  S
C934        O947   1.253       .  A
C934       C1336   1.476       .  S
O935        C945   1.267       .  A
O935       Al937   1.940       .  S
O936        C949   1.272       .  A
O936       Al946   1.949       .  S
Al937       O950   1.887       .  S
Al937       O947   1.843       .  S
Al937       O942   1.772       .  S
O938        C945   1.251       .  A
O938       Al946   1.855       .  S
O939        C948   1.255       .  A
O939       Al946   1.852       .  S
O940       Al946   1.944       .  S
O941        C948   1.278       .  A
O942       Al946   1.757       .  S
O943        C944   1.260       .  A
C944       C1360   1.479       .  S
C945       C1381   1.460       .  S
C948       C1321   1.490       .  S
C949        O950   1.260       .  A
C949       C1348   1.488       .  S
O951        C966   1.265       .  A
O951       Al959   1.925       .  S
C952        O962   1.265       .  A
C952        O953   1.256       .  A
C952       C1372   1.493       .  S
O953       Al955   1.884       .  S
O954        C956   1.274       .  A
O954       Al955   1.970       .  S
Al955       O963   1.969       .  S
Al955       O965   1.880       .  S
Al955       O964   1.767       .  S
C956        O969   1.255       .  A
C956       C1288   1.472       .  S
O957        C967   1.265       .  A
O957       Al959   1.934       .  S
O958        C971   1.273       .  A
O958      Al1432   1.953       .  S
Al959       O972   1.889       .  S
Al959       O969   1.844       .  S
Al959       O964   1.775       .  S
O960        C967   1.251       .  A
O960       Al968   1.862       .  S
O961        C970   1.256       .  A
O961       Al968   1.858       .  S
O962       Al968   1.938       .  S
O963        C970   1.278       .  A
O964       Al968   1.764       .  S
O965        C966   1.259       .  A
C966       C1357   1.480       .  S
C967       C1309   1.454       .  S
Al968      O1422   1.950       .  S
C970       C1273   1.489       .  S
C971       O1436   1.262       .  A
C971       C1297   1.488   1_556  S
O972       C1435   1.263       .  A
O973        C988   1.262       .  A
O973       Al981   1.885       .  S
C974        O984   1.254       .  A
C974        O975   1.267       .  A
C974       C1261   1.490       .  S
O975       Al977   1.942       .  S
O976        C978   1.252       .  A
O976       Al977   1.863       .  S
Al977       O985   1.858       .  S
Al977       O987   1.948       .  S
Al977       O986   1.761       .  S
C978        O991   1.269       .  A
C978       C1384   1.471       .  S
O979        C989   1.254       .  A
O979       Al981   1.845       .  S
O980        C993   1.257       .  A
O980       Al990   1.871       .  S
Al981       O994   1.945       .  S
Al981       O991   1.953       .  S
Al981       O986   1.775       .  S
O982        C989   1.277       .  A
O982       Al990   1.982       .  S
O983        C992   1.280       .  A
O983       Al990   1.982       .  S
O984       Al990   1.878       .  S
O985        C992   1.256       .  A
O986       Al990   1.763       .  S
O987        C988   1.272       .  A
C988       C1285   1.484       .  S
C989       C1300   1.473       .  S
C992       C1240   1.494       .  S
C993        O994   1.269       .  A
C993       C1252   1.483       .  S
O995       C1474   1.262   1_554  A
O995      Al1003   1.880       .  S
C996       O1006   1.255       .  A
C996        O997   1.266       .  A
C996       C1264   1.492       .  S
O997       Al999   1.938       .  S
O998       C1000   1.251       .  A
O998       Al999   1.865       .  S
Al999      O1007   1.855       .  S
Al999      O1473   1.958       .  S
Al999      O1008   1.766       .  S
C1000      O1013   1.264       .  A
C1000      C1312   1.460       .  S
O1001      C1011   1.255       .  A
O1001     Al1003   1.841       .  S
O1002      C1015   1.261       .  A
O1002     Al1012   1.890       .  S
Al1003     O1016   1.921       .  S
Al1003     O1013   1.932       .  S
Al1003     O1008   1.772       .  S
O1004      C1011   1.278       .  A
O1004     Al1012   1.988       .  S
O1005      C1014   1.281       .  A
O1005     Al1012   1.987       .  S
O1006     Al1012   1.881       .  S
O1007      C1014   1.254       .  A
O1008     Al1012   1.768       .  S
O1009      C1010   1.273       .  A
O1009     Al1463   1.953       .  S
C1010      O1459   1.261       .  A
C1010      C1333   1.483       .  S
C1011      C1345   1.480       .  S
C1014      C1225   1.499       .  S
C1015      O1016   1.263       .  A
C1015      C1249   1.482       .  S
O1017      C1496   1.261       .  A
O1017     Al1025   1.887       .  S
C1018      O1028   1.255       .  A
C1018      O1019   1.265       .  A
C1018      C1201   1.489       .  S
O1019     Al1021   1.937       .  S
O1020      C1022   1.253       .  A
O1020     Al1021   1.860       .  S
Al1021     O1029   1.845       .  S
Al1021     O1495   1.944       .  S
Al1021     O1030   1.761       .  S
C1022      O1035   1.267       .  A
C1022      C1165   1.456       .  S
O1023      C1033   1.253       .  A
O1023     Al1025   1.842       .  S
O1024      C1037   1.257       .  A
O1024     Al1034   1.874       .  S
Al1025     O1038   1.930       .  S
Al1025     O1035   1.941       .  S
Al1025     O1030   1.776       .  S
O1026      C1033   1.276       .  A
O1026     Al1034   1.970       .  S
O1027      C1036   1.279       .  A
O1027     Al1034   1.983       .  S
O1028     Al1034   1.881       .  S
O1029      C1036   1.255       .  A
O1030     Al1034   1.766       .  S
O1031      C1032   1.272       .  A
O1031     Al1485   1.946       .  S
C1032      O1481   1.259       .  A
C1032      C1180   1.478       .  S
C1033      C1189   1.471       .  S
C1036      C1276   1.491       .  S
C1037      O1038   1.266       .  A
C1037      C1213   1.481       .  S
O1039      C1054   1.260       .  A
O1039     Al1047   1.877       .  S
C1040      O1050   1.255       .  A
C1040      O1041   1.267       .  A
C1040      C1204   1.491       .  S
O1041     Al1043   1.939       .  S
O1042      C1044   1.250       .  A
O1042     Al1043   1.865       .  S
Al1043     O1051   1.857       .  S
Al1043     O1053   1.958       .  S
Al1043     O1052   1.762       .  S
C1044      O1057   1.265       .  A
C1044      C1132   1.456       .  S
O1045      C1055   1.255       .  A
O1045     Al1047   1.839       .  S
O1046      C1059   1.262       .  A
O1046     Al1056   1.890       .  S
Al1047     O1060   1.917       .  S
Al1047     O1057   1.933       .  S
Al1047     O1052   1.770       .  S
O1048      C1055   1.275       .  A
O1048     Al1056   1.970       .  S
O1049      C1058   1.278       .  A
O1049     Al1056   1.972       .  S
O1050     Al1056   1.878       .  S
O1051      C1058   1.255       .  A
O1052     Al1056   1.766       .  S
O1053      C1054   1.275       .  A
C1054      C1141   1.483       .  S
C1055      C1153   1.470       .  S
C1058      C1324   1.488       .  S
C1059      O1060   1.263       .  A
C1059      C1216   1.480       .  S
O1061      C1076   1.268       .  A
O1061     Al1069   1.936       .  S
C1062      O1072   1.265       .  A
C1062      O1063   1.254       .  A
C1062      C1105   1.486       .  S
O1063     Al1065   1.875       .  S
O1064      C1066   1.275       .  A
O1064     Al1065   1.971       .  S
Al1065     O1073   1.981       .  S
Al1065     O1075   1.876       .  S
Al1065     O1074   1.767       .  S
C1066      O1079   1.253       .  A
C1066      C1144   1.469       .  S
O1067      C1077   1.268       .  A
O1067     Al1069   1.946       .  S
O1068      C1081   1.273       .  A
O1068     Al1542   1.947       .  S
Al1069     O1082   1.888       .  S
Al1069     O1079   1.843       .  S
Al1069     O1074   1.775       .  S
O1070      C1077   1.252       .  A
O1070     Al1078   1.863       .  S
O1071      C1080   1.255       .  A
O1071     Al1078   1.854       .  S
O1072     Al1078   1.936       .  S
O1073      C1080   1.279       .  A
O1074     Al1078   1.762       .  S
O1075      C1076   1.258       .  A
C1076      C1117   1.483       .  S
C1077      C1168   1.456       .  S
Al1078     O1532   1.941       .  S
C1080      C1228   1.491       .  S
C1081      O1546   1.262       .  A
C1081      C1156   1.481   1_556  S
O1082      C1545   1.262       .  A
O1083      C1098   1.261       .  A
O1083     Al1091   1.913       .  S
C1084      O1094   1.267       .  A
C1084      O1085   1.254       .  A
C1084      C1108   1.488       .  S
O1085     Al1087   1.876       .  S
O1086      C1088   1.279       .  A
O1086     Al1087   1.982       .  S
Al1087     O1095   1.989       .  S
Al1087     O1097   1.882       .  S
Al1087     O1096   1.765       .  S
C1088      O1101   1.255       .  A
C1088      C1177   1.478       .  S
O1089      C1099   1.265       .  A
O1089     Al1091   1.934       .  S
O1090      C1103   1.275       .  A
O1090     Al1100   1.964       .  S
Al1091     O1104   1.872       .  S
Al1091     O1101   1.833       .  S
Al1091     O1096   1.770       .  S
O1092      C1099   1.252       .  A
O1092     Al1100   1.863       .  S
O1093      C1102   1.255       .  A
O1093     Al1100   1.847       .  S
O1094     Al1100   1.938       .  S
O1095      C1102   1.280       .  A
O1096     Al1100   1.759       .  S
O1097      C1098   1.260       .  A
C1098      C1120   1.475       .  S
C1099      C1129   1.457       .  S
C1102      C1237   1.495       .  S
C1103      O1104   1.258       .  A
C1103      C1192   1.483       .  S
C1105      C1106   1.404       .  A
C1105      C1110   1.414       .  A
C1106      C1107   1.403       .  A
C1106      H1111   1.084       .  S
C1107      C1108   1.417       .  A
C1107      O1112   1.373       .  S
C1108      C1109   1.403       .  A
C1109      C1110   1.398       .  A
C1109      H1113   1.083       .  S
C1110      O1114   1.371       .  S
O1112      H1116   0.993       .  S
O1114      H1115   0.991       .  S
C1117      C1118   1.404       .  A
C1117      C1122   1.414       .  A
C1118      H1123   1.083       .  S
C1119      C1120   1.413       .  A
C1119      O1124   1.372       .  S
C1120      C1121   1.401       .  A
C1121      H1125   1.084       .  S
C1122      O1126   1.372       .  S
O1124      H1128   0.992       .  S
O1126      H1127   0.992       .  S
C1129      C1130   1.402   1_545  A
C1129      C1134   1.407       .  A
C1130      C1131   1.391       .  A
C1130      H1135   1.084       .  S
C1131      C1132   1.407       .  A
C1131      O1136   1.373       .  S
C1132      C1133   1.401   1_565  A
C1133      C1134   1.390       .  A
C1133      H1137   1.084       .  S
C1134      O1138   1.373       .  S
O1136      H1140   0.991       .  S
O1138      H1139   0.991       .  S
C1141      C1142   1.403       .  A
C1141      C1146   1.418   1_565  A
C1142      C1143   1.393   1_565  A
C1142      H1147   1.084       .  S
C1143      C1144   1.411       .  A
C1143      O1148   1.373       .  S
C1144      C1145   1.398       .  A
C1145      C1146   1.403       .  A
C1145      H1149   1.084       .  S
C1146      O1150   1.372       .  S
O1148      H1152   0.991       .  S
O1150      H1151   0.992   1_545  S
C1153      C1154   1.404       .  A
C1153      C1158   1.404       .  A
C1154      C1155   1.389   1_565  A
C1154      H1159   1.084       .  S
C1155      C1156   1.410       .  A
C1155      O1160   1.372       .  S
C1156      C1157   1.413   1_545  A
C1157      C1158   1.403       .  A
C1157      H1161   1.083       .  S
C1158      O1162   1.372       .  S
O1160      H1164   0.991       .  S
O1162      H1163   0.992       .  S
C1165      C1630   1.401   1_564  A
C1165      C1170   1.408       .  A
C1166      C1629   1.401   1_545  A
C1166      C1167   1.393       .  A
C1166      H1171   1.084       .  S
C1167      C1168   1.407       .  A
C1167      O1172   1.373       .  S
C1168      C1633   1.401   1_545  A
C1169      C1632   1.401   1_564  A
C1169      C1170   1.391       .  A
C1169      H1173   1.084       .  S
C1170      O1174   1.373       .  S
O1172      H1176   0.992       .  S
O1174      H1175   0.992       .  S
C1177      C1178   1.409   1_545  A
C1177      C1182   1.404       .  A
C1178      C1179   1.390       .  A
C1178      H1183   1.084       .  S
C1179      C1180   1.405       .  A
C1179      O1184   1.372       .  S
C1180      C1181   1.412   1_565  A
C1181      C1182   1.403       .  A
C1181      H1185   1.083       .  S
C1182      O1186   1.371       .  S
O1184      H1188   0.992       .  S
O1186      H1187   0.992       .  S
C1189      C1190   1.397       .  A
C1189      C1194   1.412   1_565  A
C1190      C1191   1.401   1_565  A
C1190      H1195   1.084       .  S
C1191      C1192   1.419       .  A
C1191      O1196   1.372       .  S
C1192      C1193   1.402       .  A
C1193      C1194   1.396       .  A
C1193      H1197   1.084       .  S
C1194      O1198   1.373       .  S
O1196      H1200   0.992   1_545  S
O1198      H1199   0.992       .  S
C1201      C1202   1.404       .  A
C1201      C1206   1.414       .  A
C1202      C1203   1.402       .  A
C1202      H1207   1.084       .  S
C1203      C1204   1.417       .  A
C1203      O1208   1.372       .  S
C1204      C1205   1.404       .  A
C1205      C1206   1.402       .  A
C1205      H1209   1.083       .  S
C1206      O1210   1.372       .  S
O1208      H1212   0.992       .  S
O1210      H1211   0.992       .  S
C1213      C1214   1.405       .  A
C1213      C1218   1.413       .  A
C1214      H1219   1.083       .  S
C1215      C1216   1.414       .  A
C1215      O1220   1.372       .  S
C1216      C1217   1.402       .  A
C1217      H1221   1.083       .  S
C1218      O1222   1.372       .  S
O1220      H1224   0.992       .  S
O1222      H1223   0.992       .  S
C1225      C1226   1.399       .  A
C1225      C1694   1.424   1_554  A
C1226      C1227   1.403       .  A
C1226      H1231   1.083       .  S
C1227      C1692   1.423   1_554  A
C1227      O1232   1.372       .  S
C1228      C1691   1.421       .  A
C1228      C1229   1.399       .  A
C1229      C1230   1.402       .  A
C1229      H1233   1.084       .  S
C1230      C1689   1.421       .  A
C1230      O1234   1.372       .  S
O1232      H1236   0.992       .  S
O1234      H1235   0.992       .  S
C1237      C1238   1.415       .  A
C1237      C1242   1.406       .  A
C1238      C1239   1.400       .  A
C1238      H1243   1.083       .  S
C1239      C1240   1.404       .  A
C1239      O1244   1.371       .  S
C1240      C1241   1.417       .  A
C1241      C1242   1.406       .  A
C1241      H1245   1.083       .  S
C1242      O1246   1.371       .  S
O1244      H1248   0.991       .  S
O1246      H1247   0.992       .  S
C1249      C1250   1.402       .  A
C1249      C1254   1.414       .  A
C1250      C1251   1.396       .  A
C1250      H1255   1.084       .  S
C1251      C1252   1.415       .  A
C1251      O1256   1.372       .  S
C1252      C1253   1.403       .  A
C1253      C1254   1.400       .  A
C1253      H1257   1.083       .  S
C1254      O1258   1.372       .  S
O1256      H1260   0.992       .  S
O1258      H1259   0.992       .  S
C1261      C1266   1.416       .  A
C1262      C1263   1.402       .  A
C1262      H1267   1.084       .  S
C1263      C1264   1.417       .  A
C1263      O1268   1.372       .  S
C1265      C1266   1.403       .  A
C1265      H1269   1.083       .  S
C1266      O1270   1.372       .  S
O1268      H1272   0.991       .  S
O1270      H1271   0.991       .  S
C1273      C1274   1.416       .  A
C1273      C1278   1.403       .  A
C1274      C1739   1.405       .  A
C1274      H1279   1.083       .  S
C1275      C1738   1.404       .  A
C1275      C1276   1.405       .  A
C1275      O1280   1.371       .  S
C1276      C1277   1.415   1_554  A
C1277      C1742   1.399       .  A
C1277      H1281   1.083       .  S
C1278      C1741   1.397       .  A
C1278      O1282   1.371       .  S
O1280      H1284   0.991       .  S
O1282      H1283   0.992       .  S
C1285      C1286   1.413       .  A
C1285      C1290   1.410       .  A
C1286      C1287   1.405       .  A
C1286      H1291   1.083       .  S
C1287      C1288   1.404       .  A
C1287      O1292   1.371       .  S
C1288      C1289   1.404       .  A
C1289      C1290   1.391       .  A
C1289      H1293   1.085       .  S
C1290      O1294   1.372       .  S
O1292      H1296   0.992       .  S
O1294      H1295   0.992       .  S
C1297      C1298   1.412       .  A
C1297      C1302   1.412       .  A
C1298      C1299   1.406       .  A
C1298      H1303   1.083       .  S
C1299      C1300   1.405       .  A
C1299      O1304   1.372       .  S
C1300      C1301   1.403       .  A
C1301      C1302   1.395       .  A
C1301      H1305   1.084       .  S
C1302      O1306   1.372       .  S
O1304      H1308   0.992       .  S
O1306      H1307   0.992       .  S
C1309      C1774   1.401       .  A
C1309      C1314   1.408   1_655  A
C1310      C1773   1.401       .  A
C1310      H1315   1.084       .  S
C1311      C1312   1.409       .  A
C1311      O1316   1.372       .  S
C1312      C1777   1.402       .  A
C1313      C1776   1.402       .  A
C1313      H1317   1.084       .  S
C1314      O1318   1.373       .  S
O1316      H1320   0.991       .  S
O1318      H1319   0.992       .  S
C1321      C1322   1.413       .  A
C1321      C1326   1.406       .  A
C1322      C1323   1.399       .  A
C1322      H1327   1.083       .  S
C1323      C1324   1.404       .  A
C1323      O1328   1.371       .  S
C1324      C1325   1.414       .  A
C1325      C1326   1.404       .  A
C1325      H1329   1.083       .  S
C1326      O1330   1.371       .  S
O1328      H1332   0.992       .  S
O1330      H1331   0.992       .  S
C1333      C1334   1.413       .  A
C1333      C1338   1.408       .  A
C1334      C1335   1.404       .  A
C1334      H1339   1.083       .  S
C1335      C1336   1.404       .  A
C1335      O1340   1.371       .  S
C1336      C1337   1.407       .  A
C1337      C1338   1.393       .  A
C1337      H1341   1.084       .  S
C1338      O1342   1.373       .  S
O1340      H1344   0.991       .  S
O1342      H1343   0.992       .  S
C1345      C1346   1.405       .  A
C1345      C1350   1.406       .  A
C1346      C1347   1.391       .  A
C1346      H1351   1.084       .  S
C1347      C1348   1.409       .  A
C1347      O1352   1.372       .  S
C1348      C1349   1.414       .  A
C1349      C1350   1.408       .  A
C1349      H1353   1.083       .  S
C1350      O1354   1.371       .  S
O1352      H1356   0.991       .  S
O1354      H1355   0.991       .  S
C1357      C1358   1.406       .  A
C1357      C1362   1.411       .  A
C1358      C1359   1.400       .  A
C1358      H1363   1.083       .  S
C1359      C1360   1.411       .  A
C1359      O1364   1.372       .  S
C1360      C1361   1.404       .  A
C1361      C1362   1.393       .  A
C1361      H1365   1.084       .  S
C1362      O1366   1.372       .  S
O1364      H1368   0.991       .  S
O1366      H1367   0.992       .  S
C1369      C1370   1.408       .  A
C1370      C1371   1.402       .  A
C1370      H1375   1.084       .  S
C1371      O1376   1.371       .  S
C1372      C1373   1.409       .  A
C1373      C1374   1.403       .  A
C1373      H1377   1.083       .  S
C1374      O1378   1.371       .  S
O1376      H1380   0.991       .  S
O1378      H1379   0.992       .  S
C1381      C1382   1.405       .  A
C1381      C1386   1.405       .  A
C1382      H1387   1.084       .  S
C1383      C1384   1.406       .  A
C1383      O1388   1.372       .  S
C1384      C1385   1.409   1_655  A
C1385      H1389   1.084       .  S
C1386      O1390   1.372       .  S
O1388      H1392   0.992       .  S
O1390      H1391   0.992       .  S
O1393      C1408   1.265       .  A
O1393     Al1401   1.928       .  S
C1394      O1404   1.265       .  A
C1394      O1395   1.256       .  A
C1394      C1833   1.492       .  S
O1395     Al1397   1.883       .  S
O1396      C1398   1.278       .  A
O1396     Al1397   1.980       .  S
Al1397     O1405   1.993       .  S
Al1397     O1407   1.887       .  S
Al1397     O1406   1.765       .  S
C1398      O1411   1.255       .  A
C1398      C1800   1.477       .  S
O1399      C1409   1.267       .  A
O1399     Al1401   1.947       .  S
O1400      C1413   1.273       .  A
O1400     Al1410   1.950       .  S
Al1401     O1414   1.886       .  S
Al1401     O1411   1.843       .  S
Al1401     O1406   1.774       .  S
O1402      C1409   1.251       .  A
O1402     Al1410   1.854       .  S
O1403      C1412   1.252       .  A
O1403     Al1410   1.835       .  S
O1404     Al1410   1.939       .  S
O1405      C1412   1.282       .  A
O1406     Al1410   1.759       .  S
O1407      C1408   1.261       .  A
C1408      C1824   1.485       .  S
C1409      C1845   1.463       .  S
C1412      C1785   1.490       .  S
C1413      O1414   1.262       .  A
C1413      C1812   1.482       .  S
O1415      C1430   1.267       .  A
O1415     Al1423   1.932       .  S
C1416      O1426   1.266       .  A
C1416      O1417   1.257       .  A
C1416      C1836   1.492       .  S
O1417     Al1419   1.884       .  S
O1418      C1420   1.275       .  A
O1418     Al1419   1.976       .  S
Al1419     O1427   1.975       .  S
Al1419     O1429   1.882       .  S
Al1419     O1428   1.768       .  S
C1420      O1433   1.254       .  A
C1420      C1752   1.474       .  S
O1421      C1431   1.267       .  A
O1421     Al1423   1.936       .  S
O1422      C1435   1.273       .  A
Al1423     O1436   1.888       .  S
Al1423     O1433   1.847       .  S
Al1423     O1428   1.772       .  S
O1424      C1431   1.253       .  A
O1424     Al1432   1.865       .  S
O1425      C1434   1.256       .  A
O1425     Al1432   1.857       .  S
O1426     Al1432   1.941       .  S
O1427      C1434   1.279       .  A
O1428     Al1432   1.765       .  S
O1429      C1430   1.259       .  A
C1430      C1821   1.483       .  S
C1431      C1773   1.459       .  S
C1434      C1737   1.491       .  S
C1435      C1761   1.487       .  S
O1437      C1452   1.261       .  A
O1437     Al1445   1.887       .  S
C1438      O1448   1.255       .  A
C1438      O1439   1.267       .  A
C1438      C1725   1.497       .  S
O1439     Al1441   1.951       .  S
O1440      C1442   1.253       .  A
O1440     Al1441   1.859       .  S
Al1441     O1449   1.853       .  S
Al1441     O1451   1.956       .  S
Al1441     O1450   1.764       .  S
C1442      O1455   1.269       .  A
C1442      C1848   1.467       .  S
O1443      C1453   1.254       .  A
O1443     Al1445   1.839       .  S
O1444      C1457   1.258       .  A
O1444     Al1454   1.880       .  S
Al1445     O1458   1.933       .  S
Al1445     O1455   1.948       .  S
Al1445     O1450   1.775       .  S
O1446      C1453   1.277       .  A
O1446     Al1454   1.981       .  S
O1447      C1456   1.280       .  A
O1447     Al1454   1.983       .  S
O1448     Al1454   1.881       .  S
O1449      C1456   1.255       .  A
O1450     Al1454   1.765       .  S
O1451      C1452   1.273       .  A
C1452      C1749   1.488       .  S
C1453      C1764   1.479       .  S
C1456      C1704   1.488       .  S
C1457      O1458   1.267       .  A
C1457      C1716   1.485       .  S
O1459     Al1467   1.881       .  S
C1460      O1470   1.255       .  A
C1460      O1461   1.267       .  A
C1460      C1728   1.491       .  S
O1461     Al1463   1.943       .  S
O1462      C1464   1.251       .  A
O1462     Al1463   1.857       .  S
Al1463     O1471   1.847       .  S
Al1463     O1472   1.761       .  S
C1464      O1477   1.267       .  A
C1464      C1776   1.455       .  S
O1465      C1475   1.254       .  A
O1465     Al1467   1.841       .  S
O1466      C1479   1.259       .  A
O1466     Al1476   1.876       .  S
Al1467     O1480   1.936       .  S
Al1467     O1477   1.942       .  S
Al1467     O1472   1.773       .  S
O1468      C1475   1.279       .  A
O1468     Al1476   1.987       .  S
O1469      C1478   1.281       .  A
O1469     Al1476   1.987       .  S
O1470     Al1476   1.877       .  S
O1471      C1478   1.254       .  A
O1472     Al1476   1.762       .  S
O1473      C1474   1.274   1_554  A
C1474      C1797   1.486       .  S
C1475      C1809   1.481       .  S
C1478      C1689   1.490       .  S
C1479      O1480   1.267       .  A
C1479      C1713   1.482       .  S
O1481     Al1489   1.877       .  S
C1482      O1492   1.256       .  A
C1482      O1483   1.267       .  A
C1482      C1665   1.489       .  S
O1483     Al1485   1.939       .  S
O1484      C1486   1.253       .  A
O1484     Al1485   1.863       .  S
Al1485     O1493   1.850       .  S
Al1485     O1494   1.759       .  S
C1486      O1499   1.267       .  A
C1486      C1629   1.456       .  S
O1487      C1497   1.254       .  A
O1487     Al1489   1.845       .  S
O1488      C1501   1.257       .  A
O1488     Al1498   1.871       .  S
Al1489     O1502   1.931       .  S
Al1489     O1499   1.942       .  S
Al1489     O1494   1.774       .  S
O1490      C1497   1.275       .  A
O1490     Al1498   1.969       .  S
O1491      C1500   1.277       .  A
O1491     Al1498   1.977       .  S
O1492     Al1498   1.879       .  S
O1493      C1500   1.255       .  A
O1494     Al1498   1.765       .  S
O1495      C1496   1.271       .  A
C1496      C1644   1.484   1_554  S
C1497      C1653   1.468       .  S
C1500      C1740   1.490       .  S
C1501      O1502   1.266       .  A
C1501      C1677   1.477       .  S
O1503      C1518   1.260       .  A
O1503     Al1511   1.880       .  S
C1504      O1514   1.255       .  A
C1504      O1505   1.265       .  A
C1504      C1668   1.491       .  S
O1505     Al1507   1.935       .  S
O1506      C1508   1.251       .  A
O1506     Al1507   1.864       .  S
Al1507     O1515   1.838       .  S
Al1507     O1517   1.955       .  S
Al1507     O1516   1.764       .  S
C1508      O1521   1.268       .  A
C1508      C1596   1.463       .  S
O1509      C1519   1.256       .  A
O1509     Al1511   1.839       .  S
O1510      C1523   1.261       .  A
O1510     Al1520   1.886       .  S
Al1511     O1524   1.929       .  S
Al1511     O1521   1.946       .  S
Al1511     O1516   1.769       .  S
O1512      C1519   1.277       .  A
O1512     Al1520   1.979       .  S
O1513      C1522   1.281       .  A
O1513     Al1520   1.986       .  S
O1514     Al1520   1.887       .  S
O1515      C1522   1.253       .  A
O1516     Al1520   1.766       .  S
O1517      C1518   1.273       .  A
C1518      C1605   1.481       .  S
C1519      C1617   1.475       .  S
C1522      C1788   1.490       .  S
C1523      O1524   1.264       .  A
C1523      C1680   1.485       .  S
O1525      C1540   1.269       .  A
O1525     Al1533   1.950       .  S
C1526      O1536   1.267       .  A
C1526      O1527   1.254       .  A
C1526      C1569   1.488       .  S
O1527     Al1529   1.870       .  S
O1528      C1530   1.277       .  A
O1528     Al1529   1.979       .  S
Al1529     O1537   1.987       .  S
Al1529     O1539   1.870       .  S
Al1529     O1538   1.760       .  S
C1530      O1543   1.254       .  A
C1530      C1608   1.469       .  S
O1531      C1541   1.268       .  A
O1531     Al1533   1.950       .  S
O1532      C1545   1.271       .  A
Al1533     O1546   1.881       .  S
Al1533     O1543   1.846       .  S
Al1533     O1538   1.776       .  S
O1534      C1541   1.251       .  A
O1534     Al1542   1.862       .  S
O1535      C1544   1.254       .  A
O1535     Al1542   1.855       .  S
O1536     Al1542   1.941       .  S
O1537      C1544   1.280       .  A
O1538     Al1542   1.759       .  S
O1539      C1540   1.257       .  A
C1540      C1581   1.481       .  S
C1541      C1632   1.459       .  S
C1544      C1692   1.498       .  S
C1545      C1620   1.485       .  S
O1547      C1562   1.265       .  A
O1547     Al1555   1.925       .  S
C1548      O1558   1.266       .  A
C1548      O1549   1.256       .  A
C1548      C1572   1.486       .  S
O1549     Al1551   1.885       .  S
O1550      C1552   1.277       .  A
O1550     Al1551   1.978       .  S
Al1551     O1559   1.985       .  S
Al1551     O1561   1.884       .  S
Al1551     O1560   1.768       .  S
C1552      O1565   1.255       .  A
C1552      C1641   1.476       .  S
O1553      C1563   1.268       .  A
O1553     Al1555   1.944       .  S
O1554      C1567   1.271       .  A
O1554     Al1564   1.945       .  S
Al1555     O1568   1.881       .  S
Al1555     O1565   1.844       .  S
Al1555     O1560   1.771       .  S
O1556      C1563   1.254       .  A
O1556     Al1564   1.865       .  S
O1557      C1566   1.255       .  A
O1557     Al1564   1.849       .  S
O1558     Al1564   1.933       .  S
O1559      C1566   1.280       .  A
O1560     Al1564   1.763       .  S
O1561      C1562   1.260       .  A
C1562      C1584   1.479       .  S
C1563      C1593   1.463       .  S
C1566      C1701   1.489       .  S
C1567      O1568   1.260       .  A
C1567      C1656   1.481       .  S
C1569      C1570   1.405       .  A
C1569      C1574   1.416       .  A
C1570      C1571   1.403       .  A
C1570      H1575   1.083       .  S
C1571      C1572   1.413       .  A
C1571      O1576   1.372       .  S
C1572      C1573   1.402       .  A
C1573      C1574   1.398       .  A
C1573      H1577   1.083       .  S
C1574      O1578   1.372       .  S
O1576      H1580   0.992       .  S
O1578      H1579   0.991       .  S
C1581      C1582   1.404       .  A
C1581      C1586   1.415       .  A
C1582      H1587   1.084       .  S
C1583      C1584   1.412       .  A
C1583      O1588   1.372       .  S
C1584      C1585   1.402       .  A
C1585      H1589   1.084       .  S
C1586      O1590   1.372       .  S
O1588      H1592   0.992       .  S
O1590      H1591   0.992       .  S
C1593      C1594   1.402   1_545  A
C1593      C1598   1.408       .  A
C1594      C1595   1.395       .  A
C1594      H1599   1.084       .  S
C1595      C1596   1.410       .  A
C1595      O1600   1.373       .  S
C1596      C1597   1.401   1_565  A
C1597      C1598   1.392       .  A
C1597      H1601   1.084       .  S
C1598      O1602   1.373       .  S
O1600      H1604   0.992       .  S
O1602      H1603   0.992       .  S
C1605      C1606   1.404       .  A
C1605      C1610   1.416       .  A
C1606      C1607   1.394   1_565  A
C1606      H1611   1.084       .  S
C1607      C1608   1.411       .  A
C1607      O1612   1.373       .  S
C1608      C1609   1.399       .  A
C1609      C1610   1.402   1_545  A
C1609      H1613   1.084       .  S
C1610      O1614   1.372       .  S
O1612      H1616   0.992       .  S
O1614      H1615   0.991       .  S
C1617      C1618   1.405   1_565  A
C1617      C1622   1.405       .  A
C1618      C1619   1.390       .  A
C1618      H1623   1.084       .  S
C1619      C1620   1.410       .  A
C1619      O1624   1.372       .  S
C1620      C1621   1.413   1_545  A
C1621      C1622   1.406       .  A
C1621      H1625   1.083       .  S
C1622      O1626   1.371       .  S
O1624      H1628   0.992       .  S
O1626      H1627   0.992       .  S
C1629      C1634   1.407       .  A
C1630      C1631   1.393       .  A
C1630      H1635   1.084       .  S
C1631      C1632   1.409       .  A
C1631      O1636   1.373       .  S
C1633      C1634   1.392       .  A
C1633      H1637   1.084       .  S
C1634      O1638   1.372       .  S
O1636      H1640   0.992       .  S
O1638      H1639   0.992       .  S
C1641      C1642   1.405   1_545  A
C1641      C1646   1.405       .  A
C1642      C1643   1.393       .  A
C1642      H1647   1.084       .  S
C1643      C1644   1.410       .  A
C1643      O1648   1.372       .  S
C1644      C1645   1.412   1_565  A
C1645      C1646   1.405       .  A
C1645      H1649   1.083       .  S
C1646      O1650   1.371       .  S
O1648      H1652   0.991       .  S
O1650      H1651   0.991       .  S
C1653      C1654   1.399       .  A
C1653      C1658   1.409   1_565  A
C1654      C1655   1.402   1_565  A
C1654      H1659   1.084       .  S
C1655      C1656   1.417       .  A
C1655      O1660   1.372       .  S
C1656      C1657   1.404       .  A
C1657      C1658   1.394       .  A
C1657      H1661   1.084       .  S
C1658      O1662   1.373       .  S
O1660      H1664   0.992   1_545  S
O1662      H1663   0.992       .  S
C1665      C1666   1.404       .  A
C1665      C1670   1.414       .  A
C1666      C1667   1.403       .  A
C1666      H1671   1.084       .  S
C1667      C1668   1.416       .  A
C1667      O1672   1.371       .  S
C1668      C1669   1.405       .  A
C1669      C1670   1.401       .  A
C1669      H1673   1.083       .  S
C1670      O1674   1.372       .  S
O1672      H1676   0.991       .  S
O1674      H1675   0.992       .  S
C1677      C1678   1.405       .  A
C1677      C1682   1.412       .  A
C1678      H1683   1.083       .  S
C1679      C1680   1.413       .  A
C1679      O1684   1.371       .  S
C1680      C1681   1.403       .  A
C1681      H1685   1.083       .  S
C1682      O1686   1.372       .  S
O1684      H1688   0.992       .  S
O1686      H1687   0.992       .  S
C1689      C1690   1.398       .  A
C1690      C1691   1.403       .  A
C1690      H1695   1.083       .  S
C1691      O1696   1.372       .  S
C1692      C1693   1.399       .  A
C1693      C1694   1.405       .  A
C1693      H1697   1.084       .  S
C1694      O1698   1.372       .  S
O1696      H1700   0.992       .  S
O1698      H1699   0.992       .  S
C1701      C1702   1.413       .  A
C1701      C1706   1.405       .  A
C1702      C1703   1.401       .  A
C1702      H1707   1.084       .  S
C1703      C1704   1.404       .  A
C1703      O1708   1.371       .  S
C1704      C1705   1.414       .  A
C1705      C1706   1.404       .  A
C1705      H1709   1.084       .  S
C1706      O1710   1.371       .  S
O1708      H1712   0.992       .  S
O1710      H1711   0.992       .  S
C1713      C1714   1.405       .  A
C1713      C1718   1.411       .  A
C1714      C1715   1.396       .  A
C1714      H1719   1.084       .  S
C1715      C1716   1.413       .  A
C1715      O1720   1.372       .  S
C1716      C1717   1.406       .  A
C1717      C1718   1.401       .  A
C1717      H1721   1.083       .  S
C1718      O1722   1.371       .  S
O1720      H1724   0.992       .  S
O1722      H1723   0.992       .  S
C1725      C1730   1.418       .  A
C1726      C1727   1.399       .  A
C1726      H1731   1.083       .  S
C1727      C1728   1.416       .  A
C1727      O1732   1.371       .  S
C1729      C1730   1.403       .  A
C1729      H1733   1.084       .  S
C1730      O1734   1.372       .  S
O1732      H1736   0.991       .  S
O1734      H1735   0.992       .  S
C1737      C1738   1.416   1_556  A
C1737      C1742   1.404       .  A
C1738      H1743   1.083       .  S
C1739      C1740   1.406       .  A
C1739      O1744   1.371       .  S
C1740      C1741   1.413       .  A
C1741      H1745   1.083       .  S
C1742      O1746   1.372       .  S
O1744      H1748   0.992       .  S
O1746      H1747   0.991       .  S
C1749      C1750   1.413       .  A
C1749      C1754   1.411       .  A
C1750      C1751   1.406       .  A
C1750      H1755   1.083       .  S
C1751      C1752   1.405       .  A
C1751      O1756   1.371       .  S
C1752      C1753   1.404       .  A
C1753      C1754   1.395       .  A
C1753      H1757   1.084       .  S
C1754      O1758   1.372       .  S
O1756      H1760   0.992       .  S
O1758      H1759   0.992       .  S
C1761      C1762   1.413       .  A
C1761      C1766   1.409       .  A
C1762      C1763   1.407       .  A
C1762      H1767   1.083       .  S
C1763      C1764   1.405       .  A
C1763      O1768   1.371       .  S
C1764      C1765   1.407       .  A
C1765      C1766   1.394       .  A
C1765      H1769   1.084       .  S
C1766      O1770   1.372       .  S
O1768      H1772   0.992       .  S
O1770      H1771   0.992       .  S
C1773      C1778   1.409   1_655  A
C1774      H1779   1.084       .  S
C1775      C1776   1.408       .  A
C1775      O1780   1.373       .  S
C1777      H1781   1.084   1_554  S
C1778      O1782   1.373       .  S
O1780      H1784   0.992       .  S
O1782      H1783   0.992       .  S
C1785      C1786   1.418       .  A
C1785      C1790   1.402       .  A
C1786      C1787   1.400       .  A
C1786      H1791   1.083       .  S
C1787      C1788   1.401       .  A
C1787      O1792   1.371       .  S
C1788      C1789   1.418       .  A
C1789      C1790   1.402       .  A
C1789      H1793   1.083       .  S
C1790      O1794   1.371       .  S
O1792      H1796   0.992       .  S
O1794      H1795   0.992       .  S
C1797      C1798   1.413       .  A
C1797      C1802   1.409       .  A
C1798      C1799   1.403       .  A
C1798      H1803   1.083       .  S
C1799      C1800   1.403       .  A
C1799      O1804   1.371       .  S
C1800      C1801   1.407       .  A
C1801      C1802   1.396       .  A
C1801      H1805   1.084       .  S
C1802      O1806   1.372       .  S
O1804      H1808   0.992       .  S
O1806      H1807   0.995       .  S
C1809      C1810   1.410       .  A
C1809      C1814   1.405       .  A
C1810      C1811   1.393       .  A
C1810      H1815   1.084       .  S
C1811      C1812   1.406       .  A
C1811      O1816   1.372       .  S
C1812      C1813   1.411       .  A
C1813      C1814   1.404       .  A
C1813      H1817   1.083       .  S
C1814      O1818   1.371       .  S
O1816      H1820   0.992       .  S
O1818      H1819   0.991       .  S
C1821      C1822   1.405       .  A
C1821      C1826   1.412       .  A
C1822      C1823   1.400       .  A
C1822      H1827   1.083       .  S
C1823      C1824   1.412       .  A
C1823      O1828   1.372       .  S
C1824      C1825   1.406       .  A
C1825      C1826   1.398       .  A
C1825      H1829   1.083       .  S
C1826      O1830   1.372       .  S
O1828      H1832   0.991       .  S
O1830      H1831   0.992       .  S
C1833      C1834   1.409       .  A
C1834      C1835   1.402       .  A
C1834      H1839   1.083       .  S
C1835      O1840   1.371       .  S
C1836      C1837   1.410       .  A
C1837      C1838   1.403       .  A
C1837      H1841   1.083       .  S
C1838      O1842   1.371       .  S
O1840      H1844   0.992       .  S
O1842      H1843   0.992       .  S
C1845      C1846   1.406       .  A
C1845      C1850   1.406       .  A
C1846      H1851   1.084       .  S
C1847      C1848   1.406       .  A
C1847      O1852   1.372       .  S
C1848      C1849   1.408   1_655  A
C1849      H1853   1.084       .  S
C1850      O1854   1.372       .  S
O1852      H1856   0.992       .  S
O1854      H1855   0.991       .  S
