geometry optimzed in LAMMPS
_audit_creation_date              2020-12-01 
_audit_creation_method            'lammps2cif' 
_symmetry_space_group_name_H-M    'P1' 
_symmetry_Int_Tables_number       1 
_symmetry_cell_setting            triclinic 
loop_ 
_symmetry_equiv_pos_as_xyz 
  x,y,z 
_cell_length_a                    45.4283508 
_cell_length_b                    26.713610557929584 
_cell_length_c                    51.42501252033292 
_cell_angle_alpha                 90.15619053486495 
_cell_angle_beta                  89.94602408293696 
_cell_angle_gamma                 90.33985025528476 
loop_ 
_atom_site_label 
_atom_site_type_symbol 
_atom_site_fract_x 
_atom_site_fract_y 
_atom_site_fract_z 
_atom_site_charge 
O1          O  0.60363311  0.31019409  0.94021859    -0.81700
O2          O  0.61334975  0.27046494  0.82134896    -0.66400
O3          O  0.63292837  0.29131832  0.89291139    -1.13000
C4          C  0.62750650  0.46243656  0.87403519     1.05200
O5          O  0.63659451  0.33757243  0.80569383    -0.79600
O6          O  0.67496845  0.36603585  0.84350937    -0.67200
Ni7        Ni  0.61432869  0.25271739  0.91958150     1.34900
C8          C  0.68507933  0.36855874  0.86649867     0.83900
O9          O  0.62861426  0.20854265  0.85920789    -0.80200
O10         O  0.62351341  0.19143602  0.90182988    -0.90400
C11         C  0.62453073  0.29494135  0.80261724     0.83500
O12         O  0.57545241  0.25096440  0.90566063    -0.68600
O13         O  0.64054658  0.44774901  0.85354918    -0.87900
C14         C  0.56504324  0.25584756  0.88292773     0.84300
C15         C  0.62763617  0.17810756  0.87828413     1.05900
H16         H  0.59550959  0.35803541  0.85477101     0.37700
O17         O  0.61615280  0.35088306  0.85699628    -1.10600
O18         O  0.66849972  0.37335991  0.88649453    -0.67200
Ni19       Ni  0.62643879  0.36191466  0.89281309     1.26300
O20         O  0.58069978  0.26852097  0.86344351    -0.67500
O21         O  0.61820916  0.43210732  0.89122895    -0.79800
C22         C  0.62059158  0.34610772  0.94661914     0.83700
O23         O  0.63545674  0.36918138  0.92937716    -0.66900
Ni24       Ni  0.63775361  0.38916283  0.83181175     1.27400
Ni25       Ni  0.62229123  0.27956553  0.85744123     1.26100
H26         H  0.65379879  0.28517674  0.89443289     0.38200
O27         O  0.59977687  0.82457693  0.93800097    -0.81700
O28         O  0.61212077  0.76611280  0.82200199    -0.66400
O29         O  0.62887638  0.79205419  0.89365229    -1.13000
C30         C  0.62973766  0.96297894  0.86744984     1.05200
O31         O  0.64401827  0.82264982  0.80766994    -0.79600
O32         O  0.67653217  0.87557086  0.84182128    -0.67200
Ni33       Ni  0.60556096  0.76204602  0.92024792     1.34900
C34         C  0.68673003  0.86924680  0.86455331     0.83900
O35         O  0.62422562  0.70690272  0.86326089    -0.80200
O36         O  0.60994580  0.69687982  0.90471752    -0.90400
C37         C  0.62717066  0.78531125  0.80370935     0.83500
O38         O  0.56779861  0.76922994  0.90481970    -0.68600
O39         O  0.63314867  0.94640151  0.84442159    -0.87900
C40         C  0.55962431  0.76888883  0.88129883     0.84300
C41         C  0.61857219  0.67923307  0.88292265     1.05900
H42         H  0.59651522  0.85832643  0.85383259     0.37700
O43         O  0.61699425  0.84939494  0.85561668    -1.10600
O44         O  0.67046578  0.86351005  0.88459212    -0.67200
Ni45       Ni  0.62835059  0.86329807  0.89106115     1.26300
O46         O  0.57749164  0.77146594  0.86226720    -0.67500
O47         O  0.62739274  0.93498511  0.88742404    -0.79800
C48         C  0.62047933  0.85394403  0.94474036     0.83700
O49         O  0.63765580  0.87206353  0.92752187    -0.66900
Ni50       Ni  0.63778251  0.88236303  0.82799600     1.27400
Ni51       Ni  0.61985764  0.77774947  0.85830152     1.26100
H52         H  0.64882733  0.78139965  0.89674433     0.38200
O53         O  0.60229204  0.17496218  0.56557515    -0.81700
O54         O  0.61265177  0.23265772  0.67961208    -0.66400
O55         O  0.63306893  0.20420995  0.60929132    -1.13000
C56         C  0.62540111  0.03504457  0.63753687     1.05200
O57         O  0.64623624  0.17919721  0.69343450    -0.79600
O58         O  0.67686051  0.11865708  0.66083751    -0.67200
Ni59       Ni  0.61479468  0.23681512  0.58111895     1.34900
C60         C  0.68689224  0.12222660  0.63780772     0.83900
O61         O  0.62541083  0.29221104  0.63840454    -0.80200
O62         O  0.62725479  0.29987608  0.59494209    -0.90400
C63         C  0.62815634  0.21448438  0.69779915     0.83500
O64         O  0.57621377  0.24474620  0.59560967    -0.68600
O65         O  0.62980493  0.05299296  0.66018023    -0.87900
C66         C  0.56520718  0.23603999  0.61787146     0.84300
C67         C  0.62838735  0.31855463  0.61772748     1.05900
H68         H  0.59804865  0.14087792  0.64939008     0.37700
O69         O  0.61855877  0.14945757  0.64731471    -1.10600
O70         O  0.67063723  0.12820819  0.61797046    -0.67200
Ni71       Ni  0.62888543  0.13326834  0.61230686     1.26300
O72         O  0.58049213  0.22356331  0.63741499    -0.67500
O73         O  0.62487385  0.06236771  0.61718103    -0.79800
C74         C  0.62089491  0.14212696  0.55884432     0.83700
O75         O  0.63707782  0.12186682  0.57598803    -0.66900
Ni76       Ni  0.63794923  0.11746971  0.67527315     1.27400
Ni77       Ni  0.62204470  0.22064224  0.64384122     1.26100
H78         H  0.65364051  0.21224248  0.60773303     0.38200
O79         O  0.60052565  0.67730064  0.56394744    -0.81700
O80         O  0.60977378  0.72546946  0.67985626    -0.66400
O81         O  0.62992183  0.70710782  0.60849414    -1.13000
C82         C  0.63345197  0.53489635  0.63162502     1.05200
O83         O  0.64547242  0.67462920  0.69199308    -0.79600
O84         O  0.67846464  0.62168815  0.65771140    -0.67200
Ni85       Ni  0.60971616  0.73946620  0.58127968     1.34900
C86         C  0.68833364  0.62990731  0.63497636     0.83900
O87         O  0.61768771  0.78970300  0.63988518    -0.80200
O88         O  0.61891796  0.80298482  0.59680280    -0.90400
C89         C  0.62692641  0.70872327  0.69733016     0.83500
O90         O  0.57105152  0.74091030  0.59630142    -0.68600
O91         O  0.63509994  0.55034599  0.65506474    -0.87900
C92         C  0.56064846  0.72951774  0.61848240     0.84300
C93         C  0.61928069  0.81890503  0.62021001     1.05900
H94         H  0.59886574  0.63436953  0.64649062     0.37700
O95         O  0.61891553  0.64622816  0.64492946    -1.10600
O96         O  0.67210250  0.63744204  0.61527006    -0.67200
Ni97       Ni  0.63024923  0.63577642  0.60954745     1.26300
O98         O  0.57655653  0.71571815  0.63747327    -0.67500
O99         O  0.63142986  0.56437417  0.61223962    -0.79800
C100        C  0.62079717  0.64784242  0.55655422     0.83700
O101        O  0.63868369  0.62986384  0.57305837    -0.66900
Ni102      Ni  0.63981359  0.61409306  0.67201140     1.27400
Ni103      Ni  0.61845511  0.71792593  0.64348020     1.26100
H104        H  0.65004372  0.71871107  0.60711593     0.38200
O105        O  0.40018183  0.17292815  0.93840735    -0.81700
O106        O  0.39011311  0.21661392  0.82037954    -0.66400
O107        O  0.37065468  0.19830982  0.89212589    -1.13000
C108        C  0.36824911  0.02688677  0.87232097     1.05200
O109        O  0.35996645  0.15665794  0.80579532    -0.79600
O110        O  0.32314481  0.12498998  0.84347597    -0.67200
Ni111      Ni  0.39165152  0.23290288  0.91892794     1.34900
C112        C  0.31395040  0.12465602  0.86674232     0.83900
O113        O  0.38008208  0.28100094  0.85940506    -0.80200
O114        O  0.38425826  0.29588413  0.90228776    -0.90400
C115        C  0.37565442  0.19559297  0.80218924     0.83500
O116        O  0.43014608  0.23015988  0.90399999    -0.68600
O117        O  0.35783606  0.04206344  0.85076977    -0.87900
C118        C  0.43982925  0.22172718  0.88125474     0.84300
C119        C  0.38143246  0.31085023  0.87888702     1.05900
H120        H  0.40337419  0.12662172  0.85302638     0.37700
O121        O  0.38323909  0.13702944  0.85557181    -1.10600
O122        O  0.33099124  0.12125707  0.88634623    -0.67200
Ni123      Ni  0.37333800  0.12710948  0.89147966     1.26300
O124        O  0.42340021  0.21141633  0.86197343    -0.67500
O125        O  0.37760661  0.05629628  0.88989800    -0.79800
C126        C  0.38095540  0.14047516  0.94475483     0.83700
O127        O  0.36451718  0.12075653  0.92767390    -0.66900
Ni128      Ni  0.35981422  0.10236611  0.83030274     1.27400
Ni129      Ni  0.38145462  0.20897962  0.85665216     1.26100
H130        H  0.35023064  0.20758659  0.89396274     0.38200
O131        O  0.39736545  0.66990384  0.93863850    -0.81700
O132        O  0.38502658  0.72567490  0.82262911    -0.66400
O133        O  0.36749318  0.69791691  0.89379585    -1.13000
C134        C  0.37239527  0.52749561  0.86589833     1.05200
O135        O  0.35314138  0.66900925  0.80859023    -0.79600
O136        O  0.32266457  0.61329192  0.84218985    -0.67200
Ni137      Ni  0.38746959  0.73156905  0.92127206     1.34900
C138        C  0.31286921  0.61991457  0.86504883     0.83900
O139        O  0.37022615  0.78347263  0.86347743    -0.80200
O140        O  0.37867458  0.79562629  0.90618012    -0.90400
C141        C  0.37010091  0.70599241  0.80442315     0.83500
O142        O  0.42586932  0.73466480  0.90637748    -0.68600
O143        O  0.36829956  0.54497889  0.84322365    -0.87900
C144        C  0.43497898  0.73295850  0.88307208     0.84300
C145        C  0.37261643  0.81173445  0.88342886     1.05900
H146        H  0.40229104  0.63522208  0.85332328     0.37700
O147        O  0.38161999  0.64240860  0.85545299    -1.10600
O148        O  0.32915426  0.62396429  0.88502066    -0.67200
Ni149      Ni  0.37103626  0.62682721  0.89072689     1.26300
O150        O  0.41840741  0.72313630  0.86376281    -0.67500
O151        O  0.37392618  0.55527099  0.88615686    -0.79800
C152        C  0.37889459  0.63572259  0.94450592     0.83700
O153        O  0.36268100  0.61605216  0.92702154    -0.66900
Ni154      Ni  0.36131741  0.60896702  0.82774243     1.27400
Ni155      Ni  0.37662908  0.71334681  0.85864952     1.26100
H156        H  0.34700409  0.70602740  0.89630977     0.38200
O157        O  0.40153955  0.30041749  0.56093833    -0.81700
O158        O  0.38798892  0.24577398  0.67737120    -0.66400
O159        O  0.37093122  0.27070161  0.60562205    -1.13000
C160        C  0.37267865  0.44134113  0.63291367     1.05200
O161        O  0.35385691  0.29916324  0.68954554    -0.79600
O162        O  0.32384116  0.35682691  0.65585767    -0.67200
Ni163      Ni  0.39194887  0.23855237  0.57834010     1.34900
C164        C  0.31456975  0.35155370  0.63270355     0.83900
O165        O  0.37790281  0.18496056  0.63635631    -0.80200
O166        O  0.38354252  0.17408292  0.59317502    -0.90400
C167        C  0.37197543  0.26479436  0.69508420     0.83500
O168        O  0.43001764  0.23981291  0.59389915    -0.68600
O169        O  0.36914285  0.42448977  0.65585577    -0.87900
C170        C  0.43912186  0.24640808  0.61696755     0.84300
C171        C  0.37941757  0.15720115  0.61609370     1.05900
H172        H  0.40331121  0.33716069  0.64620090     0.37700
O173        O  0.38290941  0.32780841  0.64383514    -1.10600
O174        O  0.33130435  0.34468192  0.61319796    -0.67200
Ni175      Ni  0.37332689  0.34209470  0.60841113     1.26300
O176        O  0.42231090  0.25381028  0.63631171    -0.67500
O177        O  0.37514124  0.41337406  0.61284570    -0.79800
C178        C  0.38331406  0.33432593  0.55480277     0.83700
O179        O  0.36610255  0.35240514  0.57190760    -0.66900
Ni180      Ni  0.36209882  0.36021973  0.67116256     1.27400
Ni181      Ni  0.38035220  0.25632598  0.64099893     1.26100
H182        H  0.35054783  0.26128289  0.60316421     0.38200
O183        O  0.39700106  0.79791990  0.56219260    -0.81700
O184        O  0.38321783  0.74921769  0.67913491    -0.66400
O185        O  0.36611592  0.77035160  0.60715997    -1.13000
C186        C  0.36999728  0.94261224  0.63113127     1.05200
O187        O  0.35005560  0.80508345  0.69066091    -0.79600
O188        O  0.31989455  0.86067796  0.65618277    -0.67200
Ni189      Ni  0.38692765  0.73689022  0.58025095     1.34900
C190        C  0.31025341  0.85400369  0.63323708     0.83900
O191        O  0.37340846  0.68577430  0.63889080    -0.80200
O192        O  0.37785278  0.67347827  0.59572617    -0.90400
C193        C  0.36763213  0.77011141  0.69659865     0.83500
O194        O  0.42514561  0.73672896  0.59587151    -0.68600
O195        O  0.36576063  0.92767169  0.65435636    -0.87900
C196        C  0.43445250  0.74395422  0.61886131     0.84300
C197        C  0.37480677  0.65719561  0.61886481     1.05900
H198        H  0.39920334  0.83848520  0.64640890     0.37700
O199        O  0.37871490  0.82943162  0.64433238    -1.10600
O200        O  0.32684756  0.84584342  0.61373666    -0.67200
Ni201      Ni  0.36898563  0.84174944  0.60880845     1.26300
O202        O  0.41778620  0.75407921  0.63799338    -0.67500
O203        O  0.37204282  0.91312245  0.61168803    -0.79800
C204        C  0.37878743  0.83167307  0.55571905     0.83700
O205        O  0.36141412  0.85004030  0.57249223    -0.66900
Ni206      Ni  0.35841513  0.86458068  0.67101906     1.27400
Ni207      Ni  0.37575661  0.75767269  0.64262255     1.26100
H208        H  0.34566750  0.76115568  0.60491180     0.38200
O209        O  0.89535660  0.05536628  0.56258884    -0.81700
O210        O  0.88534185  0.01461055  0.68127745    -0.66400
O211        O  0.86656754  0.03464430  0.60955744    -1.13000
C212        C  0.87137350  0.20706428  0.63105559     1.05200
O213        O  0.85573844  0.07428229  0.69551429    -0.79600
O214        O  0.82259219  0.11808421  0.65852178    -0.67200
Ni215      Ni  0.88567355  0.99704909  0.58285420     1.34900
C216        C  0.81318183  0.11468975  0.63532636     0.83900
O217        O  0.87042105  0.95221296  0.64280163    -0.80200
O218        O  0.87744333  0.93515945  0.60046008    -0.90400
C219        C  0.87110106  0.03548999  0.69955881     0.83500
O220        O  0.92446152  0.99865665  0.59668000    -0.68600
O221        O  0.86463427  0.19215221  0.65375615    -0.87900
C222        C  0.93460433  0.00560294  0.61934475     0.84300
C223        C  0.87201227  0.92166095  0.62376458     1.05900
H224        H  0.90241476  0.10243960  0.64819381     0.37700
O225        O  0.88177820  0.09450827  0.64605188    -1.10600
O226        O  0.82988049  0.11287399  0.61553255    -0.67200
Ni227      Ni  0.87161753  0.10585387  0.61017045     1.26300
O228        O  0.91857201  0.01527683  0.63907761    -0.67500
O229        O  0.87653612  0.17728093  0.61216937    -0.79800
C230        C  0.87775055  0.09008863  0.55647392     0.83700
O231        O  0.86285143  0.11269655  0.57375195    -0.66900
Ni232      Ni  0.86086032  0.13053811  0.67245450     1.27400
Ni233      Ni  0.87664094  0.02319862  0.64505024     1.26100
H234        H  0.84583811  0.02701652  0.60781726     0.38200
O235        O  0.89868190  0.56492435  0.56241435    -0.81700
O236        O  0.89086029  0.51146409  0.67902900    -0.66400
O237        O  0.87002131  0.53549775  0.60809762    -1.13000
C238        C  0.87141761  0.70601948  0.63447925     1.05200
O239        O  0.85693912  0.56361456  0.69331125    -0.79600
O240        O  0.82395246  0.61676963  0.65970333    -0.67200
Ni241      Ni  0.89038380  0.50310781  0.58032386     1.34900
C242        C  0.81427475  0.61497439  0.63659937     0.83900
O243        O  0.87849518  0.45031760  0.63886685    -0.80200
O244        O  0.88323436  0.43869860  0.59563463    -0.90400
C245        C  0.87552099  0.52914749  0.69749785     0.83500
O246        O  0.92912504  0.50484718  0.59464451    -0.68600
O247        O  0.86620182  0.68883717  0.65715924    -0.87900
C248        C  0.93917241  0.51143197  0.61742827     0.84300
C249        C  0.87977685  0.42229419  0.61872167     1.05900
H250        H  0.90382323  0.60303660  0.64787928     0.37700
O251        O  0.88345308  0.59317344  0.64583561    -1.10600
O252        O  0.83070761  0.61086489  0.61663926    -0.67200
Ni253      Ni  0.87264297  0.60694890  0.61052888     1.26300
O254        O  0.92294305  0.51945186  0.63710141    -0.67500
O255        O  0.87577202  0.67835615  0.61454658    -0.79800
C256        C  0.87922563  0.59687712  0.55652275     0.83700
O257        O  0.86336979  0.61634361  0.57422025    -0.66900
Ni258      Ni  0.86246237  0.62453902  0.67357194     1.27400
Ni259      Ni  0.88113941  0.52171367  0.64314356     1.26100
H260        H  0.84957568  0.52603195  0.60628576     0.38200
O261        O  0.89978973  0.41931786  0.93805953    -0.81700
O262        O  0.89178096  0.47012360  0.82164091    -0.66400
O263        O  0.87099569  0.44990263  0.89282994    -1.13000
C264        C  0.86905173  0.27817779  0.86814846     1.05200
O265        O  0.85667415  0.41883203  0.80799078    -0.79600
O266        O  0.82248924  0.36726117  0.84220706    -0.67200
Ni267      Ni  0.89267594  0.48146259  0.92015182     1.34900
C268        C  0.81263844  0.37190666  0.86520922     0.83900
O269        O  0.88130749  0.53363649  0.86152003    -0.80200
O270        O  0.88660401  0.54601977  0.90467912    -0.90400
C271        C  0.87599016  0.45245154  0.80341630     0.83500
O272        O  0.93120005  0.47835120  0.90534855    -0.68600
O273        O  0.86424917  0.29414923  0.84516399    -0.87900
C274        C  0.94069012  0.47154451  0.88240373     0.84300
C275        C  0.88317961  0.56213780  0.88152595     1.05900
H276        H  0.90277393  0.37930467  0.85369431     0.37700
O277        O  0.88263439  0.39018612  0.85558307    -1.10600
O278        O  0.82923291  0.37696863  0.88505801    -0.67200
Ni279      Ni  0.87147521  0.37838972  0.89096125     1.26300
O280        O  0.92402401  0.46267230  0.86312510    -0.67500
O281        O  0.87286896  0.30685410  0.88776773    -0.79800
C282        C  0.87942335  0.38895120  0.94447445     0.83700
O283        O  0.86232931  0.37084498  0.92726498    -0.66900
Ni284      Ni  0.86107179  0.35826006  0.82826299     1.27400
Ni285      Ni  0.88213835  0.46185162  0.85765306     1.26100
H286        H  0.85087223  0.46078673  0.89477077     0.38200
O287        O  0.89504551  0.92477757  0.94185218    -0.81700
O288        O  0.88579405  0.97478222  0.82338634    -0.66400
O289        O  0.86695981  0.94860937  0.89473346    -1.13000
C290        C  0.87349209  0.77783552  0.86941617     1.05200
O291        O  0.85608119  0.91544634  0.80823039    -0.79600
O292        O  0.82360557  0.86622955  0.84385232    -0.67200
Ni293      Ni  0.88613594  0.98436380  0.92216493     1.34900
C294        C  0.81386288  0.86859388  0.86698067     0.83900
O295        O  0.87020783  0.03371666  0.86312900    -0.80200
O296        O  0.87869463  0.04783677  0.90561622    -0.90400
C297        C  0.87161025  0.95459078  0.80481377     0.83500
O298        O  0.92500108  0.98384700  0.90821793    -0.68600
O299        O  0.86695562  0.79410512  0.84693707    -0.87900
C300        C  0.93476795  0.98359428  0.88508656     0.84300
C301        C  0.87301286  0.06296142  0.88263092     1.05900
H302        H  0.90338892  0.88557981  0.85482847     0.37700
O303        O  0.88267479  0.89234035  0.85699319    -1.10600
O304        O  0.83038971  0.86989819  0.88691392    -0.67200
Ni305      Ni  0.87226815  0.87757417  0.89249447     1.26300
O306        O  0.91856348  0.97475183  0.86535917    -0.67500
O307        O  0.87765488  0.80654442  0.88894953    -0.79800
C308        C  0.87819072  0.88770214  0.94665113     0.83700
O309        O  0.86345785  0.86688614  0.92861321    -0.66900
Ni310      Ni  0.86216443  0.85731525  0.82978148     1.27400
Ni311      Ni  0.87693408  0.96330921  0.85943683     1.26100
H312        H  0.84621638  0.95549335  0.89674047     0.38200
O313        O  0.10045585  0.07174542  0.93648407    -0.81700
O314        O  0.10798748  0.02968408  0.81936861    -0.66400
O315        O  0.12906651  0.04525756  0.89084985    -1.13000
C316        C  0.13122601  0.21797462  0.86906575     1.05200
O317        O  0.14438779  0.08028890  0.80759891    -0.79600
O318        O  0.17790228  0.13073556  0.84227168    -0.67200
Ni319      Ni  0.10867444  0.01101506  0.91778180     1.34900
C320        C  0.18737831  0.12470121  0.86523186     0.83900
O321        O  0.11708219  0.96349237  0.85799806    -0.80200
O322        O  0.11592265  0.94800827  0.90103307    -0.90400
C323        C  0.12529041  0.04694556  0.80209014     0.83500
O324        O  0.06997976  0.01261926  0.90348538    -0.68600
O325        O  0.13612243  0.20282132  0.84594094    -0.87900
C326        C  0.05957175  0.02307897  0.88128644     0.84300
C327        C  0.11697342  0.93349259  0.87737318     1.05900
H328        H  0.09754572  0.11873715  0.85318851     0.37700
O329        O  0.11757071  0.10725560  0.85497677    -1.10600
O330        O  0.17065199  0.11858693  0.88487533    -0.67200
Ni331      Ni  0.12853188  0.11696605  0.89058898     1.26300
O332        O  0.07541150  0.03563996  0.86192785    -0.67500
O333        O  0.12739915  0.18884145  0.88849124    -0.79800
C334        C  0.12071954  0.10133107  0.94392366     0.83700
O335        O  0.13749121  0.12205933  0.92723279    -0.66900
Ni336      Ni  0.13952271  0.13990467  0.82827471     1.27400
Ni337      Ni  0.11732290  0.03553180  0.85564072     1.26100
H338        H  0.14924284  0.03451541  0.89209311     0.38200
O339        O  0.10183640  0.57417268  0.93521673    -0.81700
O340        O  0.11570816  0.51970933  0.82050471    -0.66400
O341        O  0.13262740  0.54709376  0.89168419    -1.13000
C342        C  0.12553816  0.71754577  0.86426263     1.05200
O343        O  0.14820259  0.57629964  0.80768805    -0.79600
O344        O  0.17684544  0.63700682  0.84103796    -0.67200
Ni345      Ni  0.11344232  0.51270971  0.91905636     1.34900
C346        C  0.18664545  0.63015176  0.86386647     0.83900
O347        O  0.12901052  0.46102148  0.86106657    -0.80200
O348        O  0.12370235  0.44889982  0.90426997    -0.90400
C349        C  0.13163747  0.53896225  0.80283167     0.83500
O350        O  0.07537555  0.50736232  0.90421290    -0.68600
O351        O  0.12906672  0.69996694  0.84147006    -0.87900
C352        C  0.06549769  0.50949215  0.88122913     0.84300
C353        C  0.12791614  0.43288568  0.88111765     1.05900
H354        H  0.09756367  0.60953972  0.85174653     0.37700
O355        O  0.11827231  0.60261752  0.85382339    -1.10600
O356        O  0.17030309  0.62294554  0.88357480    -0.67200
Ni357      Ni  0.12846561  0.61841234  0.88911280     1.26300
O358        O  0.08141626  0.52150154  0.86176888    -0.67500
O359        O  0.12496446  0.69007593  0.88465964    -0.79800
C360        C  0.12042920  0.60686214  0.94249840     0.83700
O361        O  0.13646743  0.62883664  0.92564654    -0.66900
Ni362      Ni  0.13815658  0.63654002  0.82624449     1.27400
Ni363      Ni  0.12331211  0.53157039  0.85661691     1.26100
H364        H  0.15322114  0.53959785  0.89395357     0.38200
O365        O  0.10569853  0.44006921  0.55971480    -0.81700
O366        O  0.11698212  0.48569418  0.67905154    -0.66400
O367        O  0.13427441  0.46449807  0.60687777    -1.13000
C368        C  0.12833167  0.29268814  0.63121065     1.05200
O369        O  0.15063716  0.43071835  0.69042674    -0.79600
O370        O  0.17962664  0.37359607  0.65600358    -0.67200
Ni371      Ni  0.11313540  0.49889919  0.58036746     1.34900
C372        C  0.18906558  0.37719504  0.63289147     0.83900
O373        O  0.12871747  0.54852110  0.63987424    -0.80200
O374        O  0.11838527  0.56203569  0.59773308    -0.90400
C375        C  0.13332355  0.46610999  0.69625193     0.83500
O376        O  0.07504858  0.49128455  0.59496838    -0.68600
O377        O  0.13405161  0.30819052  0.65412696    -0.87900
C378        C  0.06552351  0.48997449  0.61811894     0.84300
C379        C  0.12424838  0.57747274  0.62061785     1.05900
H380        H  0.10012252  0.39752851  0.64632956     0.37700
O381        O  0.12067400  0.40592980  0.64407381    -1.10600
O382        O  0.17247683  0.38611996  0.61347683    -0.67200
Ni383      Ni  0.13031891  0.39305104  0.60847108     1.26300
O384        O  0.08224952  0.48413962  0.63778680    -0.67500
O385        O  0.12543392  0.32177825  0.61169766    -0.79800
C386        C  0.12277632  0.40407818  0.55437937     0.83700
O387        O  0.13834749  0.38385196  0.57195002    -0.66900
Ni388      Ni  0.14136270  0.37125368  0.67081207     1.27400
Ni389      Ni  0.12452830  0.47720112  0.64260665     1.26100
H390        H  0.15479388  0.47302647  0.60453166     0.38200
O391        O  0.10168070  0.93531520  0.56006449    -0.81700
O392        O  0.11108099  0.98872949  0.67792553    -0.66400
O393        O  0.13000481  0.96265318  0.60677680    -1.13000
C394        C  0.12460537  0.79237503  0.63213808     1.05200
O395        O  0.14120647  0.93076461  0.69291353    -0.79600
O396        O  0.17412689  0.87877609  0.65838382    -0.67200
Ni397      Ni  0.10927732  0.99612484  0.57950895     1.34900
C398        C  0.18405184  0.87912938  0.63528283     0.83900
O399        O  0.12547231  0.04787034  0.63805427    -0.80200
O400        O  0.11529781  0.06042406  0.59586658    -0.90400
C401        C  0.12549627  0.96939029  0.69642565     0.83500
O402        O  0.07051856  0.99203869  0.59363098    -0.68600
O403        O  0.13058801  0.80836041  0.65486491    -0.87900
C404        C  0.06107274  0.98950527  0.61679327     0.84300
C405        C  0.12179757  0.07654784  0.61855390     1.05900
H406        H  0.09440055  0.89808706  0.64654584     0.37700
O407        O  0.11505463  0.90596940  0.64454399    -1.10600
O408        O  0.16763425  0.88412854  0.61535953    -0.67200
Ni409      Ni  0.12568700  0.89159034  0.60923009     1.26300
O410        O  0.07780444  0.98414950  0.63643410    -0.67500
O411        O  0.12046705  0.82079610  0.61266070    -0.79800
C412        C  0.11963106  0.90007668  0.55531199     0.83700
O413        O  0.13497761  0.88107678  0.57330218    -0.66900
Ni414      Ni  0.13516951  0.87186346  0.67191707     1.27400
Ni415      Ni  0.11981617  0.97713780  0.64199644     1.26100
H416        H  0.15058255  0.97079635  0.60455775     0.38200
O417        O  0.36229465  0.14854188  0.19592785    -0.81700
O418        O  0.36440219  0.11344458  0.07259696    -0.66400
O419        O  0.38131685  0.13676865  0.14475284    -1.13000
C420        C  0.37340562  0.30744055  0.12017528     1.05200
O421        O  0.39756146  0.16979374  0.06068725    -0.79600
O422        O  0.42732311  0.21829918  0.09781845    -0.67200
Ni423      Ni  0.35825954  0.09899073  0.16925397     1.34900
C424        C  0.43458222  0.22123386  0.12152594     0.83900
O425        O  0.37986214  0.05300792  0.11213594    -0.80200
O426        O  0.35219874  0.04185272  0.14706097    -0.90400
C427        C  0.37947459  0.13505941  0.05506784     0.83500
O428        O  0.32273535  0.12779700  0.15707108    -0.68600
O429        O  0.38547849  0.29172665  0.09931499    -0.87900
C430        C  0.31305277  0.12242283  0.13402687     0.84300
C431        C  0.36709905  0.02448643  0.12832024     1.05900
H432        H  0.34660322  0.20061571  0.10272971     0.37700
O433        O  0.36696921  0.19366482  0.10661982    -1.10600
O434        O  0.41581145  0.22115101  0.13999079    -0.67200
Ni435      Ni  0.37362642  0.20788718  0.14248036     1.26300
O436        O  0.33007751  0.11432059  0.11456102    -0.67500
O437        O  0.36518498  0.27788484  0.13827228    -0.79800
C438        C  0.37130282  0.19333938  0.19823151     0.83700
O439        O  0.37858447  0.22034436  0.17893655    -0.66900
Ni440      Ni  0.39044968  0.22860549  0.08155667     1.27400
Ni441      Ni  0.37254918  0.12323659  0.10890703     1.26100
H442        H  0.40195576  0.13072010  0.14793470     0.38200
O443        O  0.35959375  0.65354495  0.19559895    -0.81700
O444        O  0.36451571  0.61263776  0.07272911    -0.66400
O445        O  0.38071354  0.63841862  0.14495665    -1.13000
C446        C  0.37156475  0.80808607  0.11861581     1.05200
O447        O  0.39717681  0.66944036  0.06056011    -0.79600
O448        O  0.42610642  0.72329716  0.09649109    -0.67200
Ni449      Ni  0.35692246  0.60205931  0.16957891     1.34900
C450        C  0.43369447  0.72563905  0.12014676     0.83900
O451        O  0.37966132  0.55349044  0.11302687    -0.80200
O452        O  0.35218060  0.54295171  0.14818562    -0.90400
C453        C  0.37949385  0.63402635  0.05504719     0.83500
O454        O  0.32148852  0.62978639  0.15629180    -0.68600
O455        O  0.38231530  0.79226689  0.09725158    -0.87900
C456        C  0.31239542  0.62385282  0.13311893     0.84300
C457        C  0.36707543  0.52514221  0.12945189     1.05900
H458        H  0.34592034  0.70042444  0.10265126     0.37700
O459        O  0.36636135  0.69398035  0.10628630    -1.10600
O460        O  0.41538049  0.72291810  0.13893840    -0.67200
Ni461      Ni  0.37324176  0.70942476  0.14200115     1.26300
O462        O  0.32986011  0.61466756  0.11415620    -0.67500
O463        O  0.36471765  0.77898350  0.13729260    -0.79800
C464        C  0.36958718  0.69784783  0.19774062     0.83700
O465        O  0.37855389  0.72316469  0.17837370    -0.66900
Ni466      Ni  0.38872221  0.72891019  0.08044059     1.27400
Ni467      Ni  0.37228314  0.62368046  0.10908903     1.26100
H468        H  0.40098792  0.63240399  0.14841120     0.38200
O469        O  0.35869974  0.30893166  0.30708792    -0.81700
O470        O  0.36833828  0.35654505  0.42713818    -0.66400
O471        O  0.38506593  0.33556301  0.35481443    -1.13000
C472        C  0.38282887  0.16353103  0.38100039     1.05200
O473        O  0.40408920  0.30494794  0.43699378    -0.79600
O474        O  0.43233937  0.24224874  0.40401037    -0.67200
Ni475      Ni  0.36213499  0.36769418  0.32870173     1.34900
C476        C  0.44229269  0.25186070  0.38148144     0.83900
O477        O  0.37982577  0.41897701  0.38751832    -0.80200
O478        O  0.36387026  0.43082065  0.34679839    -0.90400
C479        C  0.38539708  0.33756524  0.44394934     0.83500
O480        O  0.32450734  0.35304294  0.34309598    -0.68600
O481        O  0.38464562  0.18003991  0.40420676    -0.87900
C482        C  0.31569852  0.35265072  0.36647908     0.84300
C483        C  0.37272807  0.44736746  0.36873444     1.05900
H484        H  0.35267561  0.26714153  0.39411532     0.37700
O485        O  0.37313382  0.27660893  0.39222617    -1.10600
O486        O  0.42603399  0.26368761  0.36236990    -0.67200
Ni487      Ni  0.38394203  0.26386038  0.35697943     1.26300
O488        O  0.33316705  0.35284964  0.38595219    -0.67500
O489        O  0.38296436  0.19181342  0.36088941    -0.79800
C490        C  0.37616560  0.27274240  0.30295320     0.83700
O491        O  0.39245097  0.25495646  0.32073891    -0.66900
Ni492      Ni  0.39389506  0.24361531  0.41934961     1.27400
Ni493      Ni  0.37574966  0.34797263  0.39056743     1.26100
H494        H  0.40516609  0.34631961  0.35204922     0.38200
O495        O  0.35274051  0.80885449  0.30949001    -0.81700
O496        O  0.36557609  0.85655471  0.42809548    -0.66400
O497        O  0.38304325  0.83491538  0.35590020    -1.13000
C498        C  0.37837363  0.66351026  0.37952285     1.05200
O499        O  0.39896405  0.80118763  0.43994331    -0.79600
O500        O  0.42979698  0.75002004  0.40482242    -0.67200
Ni501      Ni  0.36177126  0.86865734  0.32918369     1.34900
C502        C  0.43873712  0.75358669  0.38158500     0.83900
O503        O  0.37618755  0.91926781  0.38828422    -0.80200
O504        O  0.36955653  0.93183804  0.34548855    -0.90400
C505        C  0.38122954  0.83617698  0.44554963     0.83500
O506        O  0.32353932  0.86492663  0.34470638    -0.68600
O507        O  0.38636798  0.67873506  0.40198591    -0.87900
C508        C  0.31435803  0.85862296  0.36781422     0.84300
C509        C  0.37396086  0.94786709  0.36851026     1.05900
H510        H  0.34979431  0.76717266  0.39591688     0.37700
O511        O  0.37019988  0.77630181  0.39330849    -1.10600
O512        O  0.42153375  0.75738755  0.36211297    -0.67200
Ni513      Ni  0.37921232  0.76377036  0.35755133     1.26300
O514        O  0.33128360  0.85153178  0.38708971    -0.67500
O515        O  0.37385664  0.69293353  0.36052284    -0.79800
C516        C  0.37030845  0.77364152  0.30381647     0.83700
O517        O  0.38681705  0.75480702  0.32108185    -0.66900
Ni518      Ni  0.39178378  0.74188087  0.41950815     1.27400
Ni519      Ni  0.37334806  0.84776857  0.39161558     1.26100
H520        H  0.40355630  0.84353637  0.35352268     0.38200
O521        O  0.64376427  0.31974864  0.19528882    -0.81700
O522        O  0.63452355  0.36687969  0.07534766    -0.66400
O523        O  0.61602695  0.34467441  0.14752136    -1.13000
C524        C  0.61889028  0.17367294  0.12114788     1.05200
O525        O  0.59859557  0.31553760  0.06433384    -0.79600
O526        O  0.56855380  0.25645522  0.09803591    -0.67200
Ni527      Ni  0.63769449  0.37878313  0.17434680     1.34900
C528        C  0.55959789  0.25779169  0.12139629     0.83900
O529        O  0.62269950  0.42902056  0.11513686    -0.80200
O530        O  0.63301923  0.44222708  0.15730185    -0.90400
C531        C  0.61794013  0.34784015  0.05800059     0.83500
O532        O  0.67619541  0.37133280  0.15983294    -0.68600
O533        O  0.61325641  0.19015645  0.09842138    -0.87900
C534        C  0.68549584  0.36739647  0.13661369     0.84300
C535        C  0.62673881  0.45785852  0.13459704     1.05900
H536        H  0.64869018  0.27737867  0.10707867     0.37700
O537        O  0.62841565  0.28662839  0.10969196    -1.10600
O538        O  0.57659383  0.26627247  0.14067407    -0.67200
Ni539      Ni  0.61894805  0.27305588  0.14519223     1.26300
O540        O  0.66843831  0.36218568  0.11707603    -0.67500
O541        O  0.62257413  0.20174649  0.14108609    -0.79800
C542        C  0.62670089  0.28276207  0.19962110     0.83700
O543        O  0.61136767  0.26295711  0.18160507    -0.66900
Ni544      Ni  0.60669662  0.25423117  0.08271350     1.27400
Ni545      Ni  0.62609079  0.35785696  0.11183143     1.26100
H546        H  0.59565290  0.35343537  0.14987341     0.38200
O547        O  0.64194203  0.82412449  0.19331759    -0.81700
O548        O  0.63606047  0.86322216  0.07365071    -0.66400
O549        O  0.61412547  0.84497477  0.14526548    -1.13000
C550        C  0.61890578  0.67284232  0.12246258     1.05200
O551        O  0.60141712  0.80988146  0.06129228    -0.79600
O552        O  0.56867374  0.75726407  0.09621781    -0.67200
Ni553      Ni  0.63364433  0.88187225  0.17230222     1.34900
C554        C  0.55922063  0.75886828  0.11944771     0.83900
O555        O  0.62200326  0.92788302  0.11197642    -0.80200
O556        O  0.62691249  0.94375421  0.15464335    -0.90400
C557        C  0.62055696  0.84323251  0.05582109     0.83500
O558        O  0.67280814  0.87874307  0.15903724    -0.68600
O559        O  0.61218717  0.68774262  0.09967985    -0.87900
C560        C  0.68339853  0.86973318  0.13670482     0.84300
C561        C  0.62289623  0.95793874  0.13130562     1.05900
H562        H  0.64876933  0.77571957  0.10670215     0.37700
O563        O  0.62839921  0.78494128  0.10883299    -1.10600
O564        O  0.57597170  0.76526807  0.13910688    -0.67200
Ni565      Ni  0.61814825  0.77353758  0.14442187     1.26300
O566        O  0.66762549  0.86032195  0.11678363    -0.67500
O567        O  0.62301838  0.70227817  0.14177539    -0.79800
C568        C  0.62578988  0.78647409  0.19846775     0.83700
O569        O  0.61006285  0.76569290  0.18098895    -0.66900
Ni570      Ni  0.60732581  0.75057677  0.08208385     1.27400
Ni571      Ni  0.62573420  0.85625090  0.10983797     1.26100
H572        H  0.59347698  0.85300113  0.14661445     0.38200
O573        O  0.65083729  0.17447487  0.31231840    -0.81700
O574        O  0.64084786  0.12808985  0.43099102    -0.66400
O575        O  0.62269712  0.14884939  0.35914325    -1.13000
C576        C  0.63052623  0.32090079  0.38469866     1.05200
O577        O  0.60578593  0.18140394  0.44094647    -0.79600
O578        O  0.57858736  0.24615273  0.40809394    -0.67200
Ni579      Ni  0.64234562  0.11413723  0.33195288     1.34900
C580        C  0.56852162  0.23715770  0.38548709     0.83900
O581        O  0.62772070  0.06537440  0.39162684    -0.80200
O582        O  0.63512649  0.05091044  0.34892118    -0.90400
C583        C  0.62409000  0.14812249  0.44780852     0.83500
O584        O  0.68097951  0.11654424  0.34610202    -0.68600
O585        O  0.62830646  0.30446190  0.40785437    -0.87900
C586        C  0.69086518  0.12105252  0.36904922     0.84300
C587        C  0.62997637  0.03607463  0.37211469     1.05900
H588        H  0.65751662  0.21558678  0.39786429     0.37700
O589        O  0.63692906  0.20739874  0.39603625    -1.10600
O590        O  0.58461318  0.22430984  0.36646575    -0.67200
Ni591      Ni  0.62634280  0.22022386  0.36085528     1.26300
O592        O  0.67465090  0.12935168  0.38883298    -0.67500
O593        O  0.62965384  0.29233500  0.36457737    -0.79800
C594        C  0.63265899  0.20880879  0.30664679     0.83700
O595        O  0.61728715  0.22825297  0.32464782    -0.66900
Ni596      Ni  0.61722223  0.24196898  0.42320132     1.27400
Ni597      Ni  0.63270175  0.13630857  0.39455875     1.26100
H598        H  0.60215919  0.14019158  0.35719400     0.38200
O599        O  0.64868521  0.67901951  0.30956940    -0.81700
O600        O  0.64045272  0.62847869  0.42851226    -0.66400
O601        O  0.62125710  0.65074983  0.35675044    -1.13000
C602        C  0.62460307  0.82134342  0.38428307     1.05200
O603        O  0.60321387  0.67737681  0.43829435    -0.79600
O604        O  0.57421767  0.74001457  0.40699043    -0.67200
Ni605      Ni  0.64184121  0.61831713  0.32911920     1.34900
C606        C  0.56483359  0.73542888  0.38393357     0.83900
O607        O  0.63124759  0.56572210  0.38805067    -0.80200
O608        O  0.63615164  0.55386867  0.34509328    -0.90400
C609        C  0.62298216  0.64698095  0.44529482     0.83500
O610        O  0.68049896  0.62424033  0.34352290    -0.68600
O611        O  0.62013063  0.80485568  0.40726894    -0.87900
C612        C  0.69033453  0.63044571  0.36643754     0.84300
C613        C  0.63328713  0.53718322  0.36815897     1.05900
H614        H  0.65384129  0.71882391  0.39693991     0.37700
O615        O  0.63356583  0.70861316  0.39462037    -1.10600
O616        O  0.58150801  0.72623464  0.36460103    -0.67200
Ni617      Ni  0.62367592  0.72233888  0.35952384     1.26300
O618        O  0.67404250  0.63648281  0.38631720    -0.67500
O619        O  0.62681028  0.79347039  0.36412673    -0.79800
C620        C  0.63101816  0.71484143  0.30525778     0.83700
O621        O  0.61544130  0.73304600  0.32344277    -0.66900
Ni622      Ni  0.61239138  0.74008857  0.42196601     1.27400
Ni623      Ni  0.63211279  0.63721419  0.39206677     1.26100
H624        H  0.60084407  0.64118839  0.35484412     0.38200
O625        O  0.86264857  0.06942766  0.30655026    -0.81700
O626        O  0.86699992  0.11085221  0.42835306    -0.66400
O627        O  0.88562257  0.08729446  0.35662721    -1.13000
C628        C  0.87505427  0.91611660  0.38168846     1.05200
O629        O  0.89853507  0.05339516  0.44063669    -0.79600
O630        O  0.92710360  0.99341503  0.40721933    -0.67200
Ni631      Ni  0.86370549  0.12362133  0.33107701     1.34900
C632        C  0.93707477  0.99714644  0.38427764     0.83900
O633        O  0.88468501  0.17086533  0.38942227    -0.80200
O634        O  0.86313092  0.18443571  0.35121121    -0.90400
C635        C  0.88088037  0.08841684  0.44614134     0.83500
O636        O  0.82630599  0.10348635  0.34421141    -0.68600
O637        O  0.88002971  0.93121409  0.40479364    -0.87900
C638        C  0.81716340  0.10748967  0.36743632     0.84300
C639        C  0.87549953  0.20021560  0.37185325     1.05900
H640        H  0.84843267  0.02415621  0.39602687     0.37700
O641        O  0.86928706  0.03028326  0.39403710    -1.10600
O642        O  0.92102852  0.00656025  0.36456549    -0.67200
Ni643      Ni  0.87925462  0.01608905  0.35871312     1.26300
O644        O  0.83443398  0.11218360  0.38681308    -0.67500
O645        O  0.87273941  0.94527734  0.36217330    -0.79800
C646        C  0.87512871  0.02735538  0.30378938     0.83700
O647        O  0.88737377  0.00465928  0.32256362    -0.66900
Ni648      Ni  0.88837939  0.99405335  0.42129070     1.27400
Ni649      Ni  0.87619252  0.10088107  0.39232166     1.26100
H650        H  0.90623823  0.09438866  0.35381753     0.38200
O651        O  0.85865782  0.56498416  0.30787224    -0.81700
O652        O  0.86389469  0.60925780  0.42784193    -0.66400
O653        O  0.88565793  0.58758846  0.35642110    -1.13000
C654        C  0.88089957  0.41697581  0.38066936     1.05200
O655        O  0.89783318  0.55630914  0.44133182    -0.79600
O656        O  0.93148054  0.50918831  0.40573656    -0.67200
Ni657      Ni  0.86612599  0.62316829  0.32908539     1.34900
C658        C  0.94035665  0.50784013  0.38236744     0.83900
O659        O  0.87820285  0.67183749  0.38913921    -0.80200
O660        O  0.87178413  0.68590779  0.34651909    -0.90400
C661        C  0.87883841  0.58990105  0.44604392     0.83500
O662        O  0.82701921  0.61854160  0.34234945    -0.68600
O663        O  0.89063136  0.43356579  0.40231321    -0.87900
C664        C  0.81660061  0.61349731  0.36510392     0.84300
C665        C  0.87583475  0.70105263  0.36972646     1.05900
H666        H  0.85075342  0.52013942  0.39641424     0.37700
O667        O  0.87106818  0.52945130  0.39369317    -1.10600
O668        O  0.92285324  0.50771305  0.36298292    -0.67200
Ni669      Ni  0.88064615  0.51625170  0.35813765     1.26300
O670        O  0.83246439  0.60541199  0.38505399    -0.67500
O671        O  0.87426683  0.44556330  0.36175473    -0.79800
C672        C  0.87437516  0.52669457  0.30360582     0.83700
O673        O  0.88877065  0.50598858  0.32177503    -0.66900
Ni674      Ni  0.89348027  0.49692057  0.42010361     1.27400
Ni675      Ni  0.87425868  0.60056196  0.39183862     1.26100
H676        H  0.90638868  0.59533452  0.35488469     0.38200
O677        O  0.85828763  0.41199804  0.19442117    -0.81700
O678        O  0.86323694  0.36652949  0.07284721    -0.66400
O679        O  0.88234857  0.38908688  0.14482212    -1.13000
C680        C  0.87522164  0.56055610  0.11969361     1.05200
O681        O  0.89673461  0.42203069  0.06110087    -0.79600
O682        O  0.92637154  0.48233158  0.09384523    -0.67200
Ni683      Ni  0.85951912  0.35554181  0.17099047     1.34900
C684        C  0.93666159  0.47687017  0.11653536     0.83900
O685        O  0.87811834  0.30517587  0.11234308    -0.80200
O686        O  0.85911154  0.29324379  0.15195792    -0.90400
C687        C  0.87830245  0.38799041  0.05525392     0.83500
O688        O  0.82217973  0.37454123  0.15749773    -0.68600
O689        O  0.87995464  0.54536936  0.09653335    -0.87900
C690        C  0.81278476  0.37251907  0.13430265     0.84300
C691        C  0.86995993  0.27662006  0.13080471     1.05900
H692        H  0.84710430  0.45459679  0.10572895     0.37700
O693        O  0.86775658  0.44690036  0.10745872    -1.10600
O694        O  0.92068796  0.46701127  0.13632532    -0.67200
Ni695      Ni  0.87857801  0.46045691  0.14264463     1.26300
O696        O  0.82985408  0.36811138  0.11469782    -0.67500
O697        O  0.87365733  0.53137677  0.13924285    -0.79800
C698        C  0.87377106  0.45139962  0.19737275     0.83700
O699        O  0.88777182  0.47130642  0.17862965    -0.66900
Ni700      Ni  0.88751943  0.48212827  0.08010391     1.27400
Ni701      Ni  0.87217578  0.37583498  0.10916531     1.26100
H702        H  0.90273363  0.38038806  0.14743591     0.38200
O703        O  0.85349570  0.91275790  0.19431410    -0.81700
O704        O  0.85984110  0.86844556  0.07414819    -0.66400
O705        O  0.88038678  0.88855492  0.14597991    -1.13000
C706        C  0.87856222  0.05988399  0.12255216     1.05200
O707        O  0.89461854  0.92157579  0.06169523    -0.79600
O708        O  0.92823698  0.96808755  0.09691385    -0.67200
Ni709      Ni  0.85936521  0.85410836  0.17305681     1.34900
C710        C  0.93714590  0.96740771  0.12021890     0.83900
O711        O  0.87201824  0.80520968  0.11311934    -0.80200
O712        O  0.86356564  0.79116858  0.15546951    -0.90400
C713        C  0.87612412  0.88714281  0.05649027     0.83500
O714        O  0.82062365  0.86214954  0.15963193    -0.68600
O715        O  0.88782056  0.04388380  0.10065255    -0.87900
C716        C  0.81064521  0.86874568  0.13689669     0.84300
C717        C  0.86886139  0.77594161  0.13246196     1.05900
H718        H  0.84723528  0.95804050  0.10633226     0.37700
O719        O  0.86740214  0.94792888  0.10890847    -1.10600
O720        O  0.91969213  0.96644107  0.13964119    -0.67200
Ni721      Ni  0.87729337  0.95995552  0.14447719     1.26300
O722        O  0.82698047  0.87407320  0.11687320    -0.67500
O723        O  0.87241926  0.03092691  0.14147469    -0.79800
C724        C  0.87082629  0.94928977  0.19862677     0.83700
O725        O  0.88596736  0.96888755  0.18057777    -0.66900
Ni726      Ni  0.89034886  0.98065682  0.08277144     1.27400
Ni727      Ni  0.86919087  0.87661251  0.11047030     1.26100
H728        H  0.90086300  0.87960970  0.14772789     0.38200
O729        O  0.14556984  0.05853571  0.19149087    -0.81700
O730        O  0.13693282  0.10506213  0.07263518    -0.66400
O731        O  0.11736332  0.08139093  0.14415081    -1.13000
C732        C  0.12262665  0.91071715  0.11812947     1.05200
O733        O  0.10249737  0.05159778  0.06019805    -0.79600
O734        O  0.07193081  0.99409980  0.09441351    -0.67200
Ni735      Ni  0.13704675  0.11727027  0.17141060     1.34900
C736        C  0.06302039  0.99454235  0.11781085     0.83900
O737        O  0.12269988  0.16626365  0.11216573    -0.80200
O738        O  0.13023189  0.18007891  0.15469158    -0.90400
C739        C  0.12131491  0.08542426  0.05482755     0.83500
O740        O  0.17590732  0.11530204  0.15754192    -0.68600
O741        O  0.11642664  0.92711598  0.09552138    -0.87900
C742        C  0.18595583  0.11060652  0.13465100     0.84300
C743        C  0.12510663  0.19539529  0.13173212     1.05900
H744        H  0.15195375  0.01608010  0.10384710     0.37700
O745        O  0.13152126  0.02420940  0.10645088    -1.10600
O746        O  0.08005938  0.00128168  0.13717681    -0.67200
Ni747      Ni  0.12205783  0.01009064  0.14192972     1.26300
O748        O  0.16970803  0.10221750  0.11487354    -0.67500
O749        O  0.12693387  0.93890204  0.13793842    -0.79800
C750        C  0.12921178  0.02094968  0.19620716     0.83700
O751        O  0.11434632  0.99987533  0.17827914    -0.66900
Ni752      Ni  0.11023906  0.99093018  0.07938582     1.27400
Ni753      Ni  0.12770078  0.09531294  0.10877723     1.26100
H754        H  0.09669074  0.08871578  0.14607139     0.38200
O755        O  0.14410192  0.56189571  0.19061769    -0.81700
O756        O  0.13720887  0.60294472  0.07053335    -0.66400
O757        O  0.11663841  0.58212280  0.14202203    -1.13000
C758        C  0.12299849  0.41062060  0.12041189     1.05200
O759        O  0.10733097  0.54309516  0.05598176    -0.79600
O760        O  0.07313756  0.49750347  0.09191938    -0.67200
Ni761      Ni  0.13631026  0.61930424  0.16893300     1.34900
C762        C  0.06344249  0.49792478  0.11504846     0.83900
O763        O  0.12183711  0.66515026  0.10871186    -0.80200
O764        O  0.13001320  0.68120823  0.15097473    -0.90400
C765        C  0.12323061  0.58174378  0.05218475     0.83500
O766        O  0.17541246  0.61551046  0.15542653    -0.68600
O767        O  0.11482584  0.42486099  0.09793539    -0.87900
C768        C  0.18552769  0.61102399  0.13252056     0.84300
C769        C  0.12449799  0.69523713  0.12783980     1.05900
H770        H  0.15294062  0.51544280  0.10329435     0.37700
O771        O  0.13235092  0.52311318  0.10538922    -1.10600
O772        O  0.08008815  0.50076398  0.13502347    -0.67200
Ni773      Ni  0.12208848  0.51119896  0.14102361     1.26300
O774        O  0.16932690  0.60276938  0.11274470    -0.67500
O775        O  0.12876670  0.44073481  0.13893079    -0.79800
C776        C  0.12846743  0.52323238  0.19514729     0.83700
O777        O  0.11337643  0.50258441  0.17727699    -0.66900
Ni778      Ni  0.11181076  0.48650273  0.07889782     1.27400
Ni779      Ni  0.12752009  0.59420415  0.10652213     1.26100
H780        H  0.09587810  0.58910535  0.14372113     0.38200
O781        O  0.14894108  0.41525566  0.30690529    -0.81700
O782        O  0.13674794  0.36895160  0.42668010    -0.66400
O783        O  0.12042222  0.39128216  0.35424936    -1.13000
C784        C  0.12992161  0.56278151  0.37987698     1.05200
O785        O  0.10323389  0.42494085  0.43652684    -0.79600
O786        O  0.07694495  0.48893777  0.40379196    -0.67200
Ni787      Ni  0.14179422  0.35659230  0.32772049     1.34900
C788        C  0.06685544  0.48322050  0.38098713     0.83900
O789        O  0.12379830  0.30682142  0.38666933    -0.80200
O790        O  0.13638550  0.29377883  0.34496106    -0.90400
C791        C  0.12084266  0.39085777  0.44355543     0.83500
O792        O  0.18005542  0.36353021  0.34246441    -0.68600
O793        O  0.12574822  0.54756987  0.40310165    -0.87900
C794        C  0.18895378  0.36505644  0.36583114     0.84300
C795        C  0.12885866  0.27800079  0.36734469     1.05900
H796        H  0.15527892  0.45632553  0.39379697     0.37700
O797        O  0.13462922  0.44906003  0.39169108    -1.10600
O798        O  0.08289686  0.47058012  0.36169035    -0.67200
Ni799      Ni  0.12500458  0.46262748  0.35632810     1.26300
O800        O  0.17172084  0.36965804  0.38529479    -0.67500
O801        O  0.13047360  0.53382617  0.36001918    -0.79800
C802        C  0.13194335  0.45162061  0.30203072     0.83700
O803        O  0.11690944  0.47219811  0.31996058    -0.66900
Ni804      Ni  0.11520804  0.48488724  0.41872508     1.27400
Ni805      Ni  0.12951037  0.37788339  0.38999325     1.26100
H806        H  0.09987553  0.38334103  0.35161629     0.38200
O807        O  0.14456513  0.91200299  0.30690604    -0.81700
O808        O  0.13658899  0.87157489  0.42824589    -0.66400
O809        O  0.11851255  0.88920089  0.35584594    -1.13000
C810        C  0.12401719  0.06224632  0.37839569     1.05200
O811        O  0.10268364  0.92659379  0.43923875    -0.79600
O812        O  0.07283148  0.98150273  0.40497972    -0.67200
Ni813      Ni  0.14110533  0.85534956  0.32979502     1.34900
C814        C  0.06309235  0.97455299  0.38220682     0.83900
O815        O  0.12447379  0.80694438  0.38960598    -0.80200
O816        O  0.13947767  0.79359020  0.34858664    -0.90400
C817        C  0.12062214  0.89236398  0.44539754     0.83500
O818        O  0.17882386  0.87089131  0.34388063    -0.68600
O819        O  0.11831350  0.04803802  0.40154394    -0.87900
C820        C  0.18793510  0.87091786  0.36719902     0.84300
C821        C  0.13154079  0.77805417  0.37088101     1.05900
H822        H  0.15243013  0.95867847  0.39439771     0.37700
O823        O  0.13192016  0.94973141  0.39250719    -1.10600
O824        O  0.07951140  0.96591766  0.36261056    -0.67200
Ni825      Ni  0.12166215  0.96072063  0.35697166     1.26300
O826        O  0.17073674  0.87232546  0.38679394    -0.67500
O827        O  0.12619677  0.03204290  0.35927290    -0.79800
C828        C  0.12799254  0.94925428  0.30277109     0.83700
O829        O  0.11276405  0.96869636  0.32080839    -0.66900
Ni830      Ni  0.11137624  0.98557805  0.41906347     1.27400
Ni831      Ni  0.12846362  0.87836404  0.39174890     1.26100
H832        H  0.09816042  0.87959899  0.35339022     0.38200
C833        C  0.14920056  0.69941243  0.39212704    -0.02700
C834        C  0.13047159  0.72326113  0.37426412     0.07000
C835        C  0.11312608  0.69430687  0.35709841    -0.02800
C836        C  0.11407966  0.64175384  0.35796368    -0.02800
C837        C  0.13250493  0.61760169  0.37609043     0.07100
C838        C  0.15055412  0.64671412  0.39277228    -0.03000
Br839      Br  0.17861992  0.61456098  0.41534495    -0.01500
Br840      Br  0.17372838  0.73891735  0.41508025    -0.01600
Br841      Br  0.08886035  0.60357487  0.33489738    -0.01600
Br842      Br  0.08683597  0.72692367  0.33301339    -0.01500
C843        C  0.11330373  0.19330062  0.35119140    -0.02700
C844        C  0.12697690  0.22296012  0.37059524     0.07000
C845        C  0.14205252  0.19940479  0.39112039    -0.02800
C846        C  0.14215423  0.14681441  0.39295931    -0.02800
C847        C  0.12767186  0.11703316  0.37399408     0.07100
C848        C  0.11490573  0.14069442  0.35215583    -0.03000
Br849      Br  0.10024779  0.10247017  0.32281283    -0.01500
Br850      Br  0.09067789  0.22449491  0.32384545    -0.01600
Br851      Br  0.16482291  0.11581368  0.42031656    -0.01600
Br852      Br  0.16433830  0.23873639  0.41595413    -0.01500
C853        C  0.10270976  0.49107711  0.23551216    -0.02700
C854        C  0.12908167  0.50159918  0.22188711     0.07000
C855        C  0.15632097  0.49461277  0.23462299    -0.02800
C856        C  0.15718968  0.47980425  0.26092585    -0.02800
C857        C  0.13081100  0.47061080  0.27479824     0.07100
C858        C  0.10359630  0.47530399  0.26174390    -0.03000
Br859      Br  0.06745711  0.45727133  0.27928003    -0.01500
Br860      Br  0.06512770  0.49974999  0.21867001    -0.01600
Br861      Br  0.19488947  0.47376312  0.27804560    -0.01600
Br862      Br  0.19281718  0.50258588  0.21565142    -0.01500
C863        C  0.10389358  0.77865121  0.14003353    -0.02700
C864        C  0.12189834  0.74979669  0.12345095     0.07000
C865        C  0.13970692  0.77396783  0.10474052    -0.02800
C866        C  0.14080138  0.82665633  0.10374611    -0.02800
C867        C  0.12373211  0.85560305  0.12110656     0.07100
C868        C  0.10499338  0.83131420  0.13907477    -0.03000
Br869      Br  0.07961503  0.86977761  0.16163352    -0.01500
Br870      Br  0.07603443  0.74577361  0.16282532    -0.01600
Br871      Br  0.16695686  0.85916446  0.07931666    -0.01600
Br872      Br  0.16329102  0.73535261  0.08075895    -0.01500
C873        C  0.11067985  0.33276770  0.14565959    -0.02700
C874        C  0.12532906  0.35600303  0.12464995     0.07000
C875        C  0.13987488  0.32626289  0.10594394    -0.02800
C876        C  0.13877007  0.27372027  0.10750381    -0.02800
C877        C  0.12314442  0.25030731  0.12796472     0.07100
C878        C  0.10857665  0.28020646  0.14669576    -0.03000
Br879      Br  0.08364279  0.24960845  0.17278101    -0.01500
Br880      Br  0.09347097  0.37225367  0.17329953    -0.01600
Br881      Br  0.15987865  0.23468970  0.08189109    -0.01600
Br882      Br  0.16365590  0.35765833  0.07927959    -0.01500
C883        C  0.10114362  0.97737285  0.26244332    -0.02700
C884        C  0.12779356  0.97073439  0.27612085     0.07000
C885        C  0.15478420  0.98061891  0.26341190    -0.02800
C886        C  0.15523352  0.99516700  0.23711030    -0.02800
C887        C  0.12861226  0.00123536  0.22325046     0.07100
C888        C  0.10154694  0.99270885  0.23615628    -0.03000
Br889      Br  0.06481602  0.00419171  0.21829508    -0.01500
Br890      Br  0.06396584  0.96393438  0.27933224    -0.01600
Br891      Br  0.19277274  0.00457832  0.21995435    -0.01600
Br892      Br  0.19144879  0.97659117  0.28239406    -0.01500
C893        C  0.01843099  0.93995144  0.11258261    -0.02700
C894        C  0.03127637  0.98451281  0.12237882     0.07000
C895        C  0.01333277  0.01989186  0.13501331    -0.02800
C896        C  0.98249621  0.01319343  0.13541650    -0.02800
C897        C  0.96948078  0.96995029  0.12438429     0.07100
C898        C  0.98772802  0.93252985  0.11386587    -0.03000
Br899      Br  0.97051334  0.87102596  0.10112110    -0.01500
Br900      Br  0.04285646  0.88855874  0.09743692    -0.01600
Br901      Br  0.95807863  0.06605070  0.14851050    -0.01600
Br902      Br  0.03064727  0.07921600  0.15022739    -0.01500
C903        C  0.88765737  0.63946680  0.14427914    -0.02700
C904        C  0.87226171  0.61534352  0.12383784     0.07000
C905        C  0.85595709  0.64444599  0.10603000    -0.02800
C906        C  0.85564658  0.69702181  0.10818413    -0.02800
C907        C  0.87120812  0.72108092  0.12848235     0.07100
C908        C  0.88760970  0.69204623  0.14621877    -0.03000
Br909      Br  0.91226875  0.72429689  0.17205329    -0.01500
Br910      Br  0.90986123  0.60142213  0.16947008    -0.01600
Br911      Br  0.83319179  0.73544726  0.08339091    -0.01600
Br912      Br  0.83216978  0.61244444  0.07951501    -0.01500
C913        C  0.88290005  0.14018576  0.14867343    -0.02700
C914        C  0.87488219  0.11506458  0.12545962     0.07000
C915        C  0.86459502  0.14352084  0.10408707    -0.02800
C916        C  0.86416028  0.19623075  0.10526956    -0.02800
C917        C  0.87290429  0.22132518  0.12821256     0.07100
C918        C  0.88290714  0.19292408  0.14966677    -0.03000
Br919      Br  0.89939927  0.22601067  0.17991850    -0.01500
Br920      Br  0.89343781  0.10360092  0.17971028    -0.01600
Br921      Br  0.85111119  0.23331586  0.07520818    -0.01600
Br922      Br  0.84800763  0.11067066  0.07378059    -0.01500
C923        C  0.98698891  0.44118595  0.12350152    -0.02700
C924        C  0.96895954  0.48317098  0.11955712     0.07000
C925        C  0.98215464  0.53043364  0.11500855    -0.02800
C926        C  0.01309231  0.53568367  0.11474786    -0.02800
C927        C  0.03110794  0.49361650  0.11850785     0.07100
C928        C  0.01790624  0.44620844  0.12235715    -0.03000
Br929      Br  0.04193197  0.38717536  0.12294944    -0.01500
Br930      Br  0.96923450  0.37603765  0.12823297    -0.01600
Br931      Br  0.03099379  0.59997433  0.10777634    -0.01600
Br932      Br  0.95782101  0.58789511  0.10825260    -0.01500
C933        C  0.99130156  0.54278079  0.38806106    -0.02700
C934        C  0.97269294  0.50507420  0.37798155     0.07000
C935        C  0.98532841  0.46225277  0.36638318    -0.02800
C936        C  0.01621999  0.45616591  0.36588120    -0.02800
C937        C  0.03478802  0.49262819  0.37729852     0.07100
C938        C  0.02213537  0.53687590  0.38752691    -0.03000
Br939      Br  0.04697476  0.59033982  0.40050835    -0.01500
Br940      Br  0.97437147  0.60255522  0.40293571    -0.01600
Br941      Br  0.03273740  0.39583594  0.35137389    -0.01600
Br942      Br  0.96033601  0.40926194  0.35355132    -0.01500
C943        C  0.90144711  0.49750375  0.26337653    -0.02700
C944        C  0.87463430  0.50571299  0.27669806     0.07000
C945        C  0.84778440  0.49851345  0.26326992    -0.02800
C946        C  0.84773808  0.48363730  0.23695817    -0.02800
C947        C  0.87446606  0.47432417  0.22379699     0.07100
C948        C  0.90135335  0.48204658  0.23702727    -0.03000
Br949      Br  0.93814589  0.47027773  0.21929254    -0.01500
Br950      Br  0.93847180  0.50892067  0.28085659    -0.01600
Br951      Br  0.81076731  0.47844605  0.21854966    -0.01600
Br952      Br  0.81064736  0.50642834  0.28119489    -0.01500
C953        C  0.89282988  0.83865470  0.35937689    -0.02700
C954        C  0.87369814  0.86132190  0.37754416     0.07000
C955        C  0.85620743  0.83096159  0.39396163    -0.02800
C956        C  0.85770061  0.77841975  0.39216177    -0.02800
C957        C  0.87677683  0.75582980  0.37393987     0.07100
C958        C  0.89458839  0.78617065  0.35782363    -0.03000
Br959      Br  0.92297990  0.75587735  0.33468747    -0.01500
Br960      Br  0.91803287  0.87903863  0.33737474    -0.01600
Br961      Br  0.83258173  0.73778915  0.41408219    -0.01600
Br962      Br  0.82910414  0.86125334  0.41825602    -0.01500
C963        C  0.88510817  0.33717905  0.35424542    -0.02700
C964        C  0.87791974  0.36152550  0.37788453     0.07000
C965        C  0.86999326  0.33198508  0.39978723    -0.02800
C966        C  0.87059372  0.27928517  0.39840120    -0.02800
C967        C  0.87847582  0.25530153  0.37496601     0.07100
C968        C  0.88673344  0.28460565  0.35325459    -0.03000
Br969      Br  0.90319168  0.25300583  0.32262439    -0.01500
Br970      Br  0.89231938  0.37428730  0.32256696    -0.01600
Br971      Br  0.86016574  0.24054458  0.42882333    -0.01600
Br972      Br  0.85541063  0.36280071  0.43137963    -0.01500
C973        C  0.98724841  0.03011710  0.37330380    -0.02700
C974        C  0.96908757  0.98968672  0.38069656     0.07000
C975        C  0.98199457  0.94329386  0.38719027    -0.02800
C976        C  0.01275660  0.93723923  0.38565961    -0.02800
C977        C  0.03088958  0.97802419  0.37882542     0.07100
C978        C  0.01806104  0.02462630  0.37307215    -0.03000
Br979      Br  0.04274853  0.08246497  0.36776855    -0.01500
Br980      Br  0.97016573  0.09456454  0.36613966    -0.01600
Br981      Br  0.03042737  0.87387817  0.39429177    -0.01600
Br982      Br  0.95783565  0.88855474  0.39947727    -0.01500
C983        C  0.84719321  0.00207703  0.26387269    -0.02700
C984        C  0.87427877  0.00467149  0.27740536     0.07000
C985        C  0.90037826  0.98979010  0.26469226    -0.02800
C986        C  0.89927407  0.97156965  0.23891134    -0.02800
C987        C  0.87229899  0.97010588  0.22531061     0.07100
C988        C  0.84632000  0.98577561  0.23784038    -0.03000
Br989      Br  0.80954533  0.98707160  0.21896161    -0.01500
Br990      Br  0.81077848  0.01938065  0.28111440    -0.01600
Br991      Br  0.93453707  0.94636670  0.22264030    -0.01600
Br992      Br  0.93791610  0.99728927  0.28184720    -0.01500
C993        C  0.73599169  0.58590114  0.37994321    -0.02700
C994        C  0.72254197  0.62914741  0.36991133     0.07000
C995        C  0.74004353  0.66894471  0.36077118    -0.02800
C996        C  0.77086014  0.66414352  0.35982238    -0.02800
C997        C  0.78438865  0.61953862  0.36835594     0.07100
C998        C  0.76687447  0.58099721  0.37913679    -0.03000
Br999      Br  0.78476395  0.51994917  0.39102712    -0.01500
Br1000     Br  0.71188926  0.53255246  0.39382203    -0.01600
Br1001     Br  0.79444268  0.71927446  0.34705933    -0.01600
Br1002     Br  0.72157382  0.73045364  0.35016736    -0.01500
C1003       C  0.64526433  0.95766286  0.39500978    -0.02700
C1004       C  0.62727791  0.98152413  0.37643380     0.07000
C1005       C  0.60825533  0.95258305  0.36066839    -0.02800
C1006       C  0.60783150  0.90010532  0.36284118    -0.02800
C1007       C  0.62636475  0.87617304  0.38093521     0.07100
C1008       C  0.64512272  0.90511383  0.39695464    -0.03000
Br1009     Br  0.67227754  0.87269510  0.42033082    -0.01500
Br1010     Br  0.67103733  0.99638716  0.41732591    -0.01600
Br1011     Br  0.58093754  0.86148564  0.34149063    -0.01600
Br1012     Br  0.58136741  0.98497247  0.33707470    -0.01500
C1013       C  0.61692059  0.40929394  0.39780352    -0.02700
C1014       C  0.63298312  0.37641554  0.38132955     0.07000
C1015       C  0.65041381  0.39717422  0.36123321    -0.02800
C1016       C  0.65058780  0.44939287  0.35678885    -0.02800
C1017       C  0.63274585  0.48167762  0.37207848     0.07100
C1018       C  0.61536473  0.46072102  0.39211610    -0.03000
Br1019     Br  0.58677999  0.50106416  0.41052385    -0.01500
Br1020     Br  0.59719192  0.38624610  0.42908783    -0.01600
Br1021     Br  0.67642875  0.47562198  0.33008006    -0.01600
Br1022     Br  0.67671014  0.35492867  0.34140256    -0.01500
C1023       C  0.76760372  0.06695541  0.36437576    -0.02700
C1024       C  0.78499445  0.10837776  0.37178265     0.07000
C1025       C  0.77129626  0.15223653  0.38107353    -0.02800
C1026       C  0.74036309  0.15586658  0.38125467    -0.02800
C1027       C  0.72298674  0.11538618  0.37247513     0.07100
C1028       C  0.73669619  0.07039459  0.36471508    -0.03000
Br1029     Br  0.71316175  0.01325237  0.35446123    -0.01500
Br1030     Br  0.78630200  0.00521532  0.35415432    -0.01600
Br1031     Br  0.72200270  0.21791649  0.39130968    -0.01600
Br1032     Br  0.79476871  0.20885102  0.39185431    -0.01500
C1033       C  0.73119271  0.82416083  0.13319800    -0.02700
C1034       C  0.71587127  0.86982955  0.13415131     0.07000
C1035       C  0.73181126  0.91530299  0.13535072    -0.02800
C1036       C  0.76288320  0.91512686  0.13474319    -0.02800
C1037       C  0.77820169  0.86940666  0.13399218     0.07100
C1038       C  0.76222469  0.82394487  0.13372924    -0.03000
Br1039     Br  0.78282559  0.76125523  0.13601514    -0.01500
Br1040     Br  0.70957051  0.76174486  0.13316138    -0.01600
Br1041     Br  0.78459833  0.97731595  0.13657737    -0.01600
Br1042     Br  0.71104379  0.97769027  0.13908615    -0.01500
C1043       C  0.65551199  0.74459697  0.26409275    -0.02700
C1044       C  0.62941292  0.73592762  0.27843539     0.07000
C1045       C  0.60190919  0.74407935  0.26627861    -0.02800
C1046       C  0.60062518  0.76005054  0.24009677    -0.02800
C1047       C  0.62671709  0.76630918  0.22546560     0.07100
C1048       C  0.65416298  0.75812532  0.23763714    -0.03000
Br1049     Br  0.69025355  0.76309980  0.21779992    -0.01500
Br1050     Br  0.69342682  0.74154679  0.28099679    -0.01600
Br1051     Br  0.56306265  0.77589033  0.22475362    -0.01600
Br1052     Br  0.56569344  0.73176367  0.28498868    -0.01500
C1053       C  0.60507654  0.59347649  0.14564076    -0.02700
C1054       C  0.62166924  0.61808968  0.12623525     0.07000
C1055       C  0.63928815  0.58966232  0.10904974    -0.02800
C1056       C  0.64059212  0.53720593  0.11144205    -0.02800
C1057       C  0.62419096  0.51266211  0.13098519     0.07100
C1058       C  0.60619143  0.54096605  0.14787976    -0.03000
Br1059     Br  0.58136582  0.50756031  0.17306259    -0.01500
Br1060     Br  0.57932700  0.63109982  0.16826605    -0.01600
Br1061     Br  0.66585644  0.49943460  0.08844474    -0.01600
Br1062     Br  0.66271815  0.62258951  0.08267710    -0.01500
C1063       C  0.60254158  0.09408211  0.14275044    -0.02700
C1064       C  0.62032946  0.11858856  0.12414417     0.07000
C1065       C  0.63725666  0.08989883  0.10658192    -0.02800
C1066       C  0.63665764  0.03720836  0.10769818    -0.02800
C1067       C  0.61983926  0.01265575  0.12702031     0.07100
C1068       C  0.60224516  0.04141687  0.14413521    -0.03000
Br1069     Br  0.57608324  0.00878465  0.16857953    -0.01500
Br1070     Br  0.57730691  0.13222693  0.16564724    -0.01600
Br1071     Br  0.65977898  0.99943406  0.08300430    -0.01600
Br1072     Br  0.66288753  0.12283126  0.08184549    -0.01500
C1073       C  0.73383046  0.32944111  0.12267964    -0.02700
C1074       C  0.71790099  0.37065026  0.13241905     0.07000
C1075       C  0.73333780  0.41457754  0.13976207    -0.02800
C1076       C  0.76436482  0.41638621  0.13849291    -0.02800
C1077       C  0.78035534  0.37398758  0.13048415     0.07100
C1078       C  0.76493116  0.33096881  0.12194531    -0.03000
Br1079     Br  0.78643274  0.27255977  0.11116975    -0.01500
Br1080     Br  0.71328772  0.26937276  0.11219605    -0.01600
Br1081     Br  0.78517414  0.47728870  0.14733431    -0.01600
Br1082     Br  0.71196390  0.47256674  0.15164748    -0.01500
C1083       C  0.61552617  0.29144721  0.24715433    -0.02700
C1084       C  0.62594177  0.26188297  0.22642922     0.07000
C1085       C  0.63783737  0.21456093  0.23168847    -0.02800
C1086       C  0.63990807  0.19699154  0.25756392    -0.02800
C1087       C  0.63029194  0.22725166  0.27890549     0.07100
C1088       C  0.61798012  0.27496641  0.27316948    -0.03000
Br1089     Br  0.60551479  0.32074219  0.30024876    -0.01500
Br1090     Br  0.59696725  0.35469743  0.23953786    -0.01600
Br1091     Br  0.65569997  0.13050217  0.26244102    -0.01600
Br1092     Br  0.65232754  0.17446027  0.20310402    -0.01500
C1093       C  0.26804314  0.89866851  0.38468086    -0.02700
C1094       C  0.28214927  0.85850825  0.37199469     0.07000
C1095       C  0.26516553  0.81968085  0.36113577    -0.02800
C1096       C  0.23436471  0.82348067  0.36017225    -0.02800
C1097       C  0.22010288  0.86540214  0.37117134     0.07100
C1098       C  0.23697027  0.90179591  0.38458395    -0.03000
Br1099     Br  0.21786015  0.95724085  0.40149600    -0.01500
Br1100     Br  0.29136969  0.95025817  0.40116751    -0.01600
Br1101     Br  0.21184407  0.77052178  0.34381169    -0.01600
Br1102     Br  0.28435335  0.76018359  0.34860263    -0.01500
C1103       C  0.48844876  0.79186565  0.38739971    -0.02700
C1104       C  0.47096607  0.75241716  0.37763778     0.07000
C1105       C  0.48458084  0.70860761  0.36829072    -0.02800
C1106       C  0.51547190  0.70400543  0.36886804    -0.02800
C1107       C  0.53287277  0.74251120  0.37978104     0.07100
C1108       C  0.51922659  0.78676915  0.38882676    -0.03000
Br1109     Br  0.54242228  0.84034762  0.40389476    -0.01500
Br1110     Br  0.46992616  0.85241277  0.39959643    -0.01600
Br1111     Br  0.53356378  0.64277202  0.35715476    -0.01600
Br1112     Br  0.46083800  0.65249651  0.35753885    -0.01500
C1113       C  0.38566426  0.53218309  0.35134268    -0.02700
C1114       C  0.37462945  0.50255454  0.37197858     0.07000
C1115       C  0.36368074  0.52625983  0.39457881    -0.02800
C1116       C  0.36308973  0.57889599  0.39614109    -0.02800
C1117       C  0.37472432  0.60855165  0.37572688     0.07100
C1118       C  0.38475663  0.58476767  0.35277125    -0.03000
Br1119     Br  0.39693743  0.62287463  0.32261140    -0.01500
Br1120     Br  0.40483571  0.50112971  0.32180443    -0.01600
Br1121     Br  0.34339127  0.61001176  0.42536415    -0.01600
Br1122     Br  0.34922477  0.48751555  0.42372145    -0.01500
C1123       C  0.35921951  0.08724502  0.36105771    -0.02700
C1124       C  0.38068005  0.10834425  0.37766767     0.07000
C1125       C  0.39940212  0.07622244  0.39199673    -0.02800
C1126       C  0.39784601  0.02399283  0.38842407    -0.02800
C1127       C  0.37612211  0.00292639  0.37207698     0.07100
C1128       C  0.35644180  0.03488706  0.35877493    -0.03000
Br1129     Br  0.32408071  0.00764207  0.33861803    -0.01500
Br1130     Br  0.33182341  0.12966125  0.34285114    -0.01600
Br1131     Br  0.42688990  0.98189964  0.40487448    -0.01600
Br1132     Br  0.42748951  0.10257022  0.41688978    -0.01500
C1133       C  0.26616000  0.31109095  0.36476412    -0.02700
C1134       C  0.28337373  0.35364788  0.37066447     0.07000
C1135       C  0.26923263  0.39924055  0.37651743    -0.02800
C1136       C  0.23823490  0.40187539  0.37731230    -0.02800
C1137       C  0.22108489  0.36000365  0.37012697     0.07100
C1138       C  0.23519249  0.31451860  0.36385709    -0.03000
Br1139     Br  0.21213824  0.25724346  0.35301875    -0.01500
Br1140     Br  0.28524254  0.24862636  0.35683112    -0.01600
Br1141     Br  0.21933873  0.46403364  0.38625727    -0.01600
Br1142     Br  0.29203770  0.45979019  0.37980955    -0.01500
C1143       C  0.48839065  0.20310228  0.37330229    -0.02700
C1144       C  0.47455556  0.24944701  0.37781432     0.07000
C1145       C  0.49188722  0.29273891  0.38120746    -0.02800
C1146       C  0.52279782  0.28903862  0.38197498    -0.02800
C1147       C  0.53642065  0.24172185  0.38108325     0.07100
C1148       C  0.51918403  0.19887797  0.37576130    -0.03000
Br1149     Br  0.53757957  0.13419336  0.37273673    -0.01500
Br1150     Br  0.46533927  0.14612852  0.36248937    -0.01600
Br1151     Br  0.54639549  0.34892360  0.38228062    -0.01600
Br1152     Br  0.47309075  0.35693902  0.38491467    -0.01500
C1153       C  0.26299685  0.66488708  0.13708817    -0.02700
C1154       C  0.28010081  0.62398123  0.12870126     0.07000
C1155       C  0.26588065  0.58075594  0.11884015    -0.02800
C1156       C  0.23488405  0.57719617  0.11897768    -0.02800
C1157       C  0.21783038  0.61680913  0.12895888     0.07100
C1158       C  0.23199810  0.66141497  0.13709369    -0.03000
Br1159     Br  0.20886285  0.71828184  0.14785008    -0.01500
Br1160     Br  0.28212185  0.72594480  0.14835680    -0.01600
Br1161     Br  0.21609649  0.51625272  0.10735421    -0.01600
Br1162     Br  0.28871861  0.52422965  0.10724121    -0.01500
C1163       C  0.48484424  0.69317006  0.11801797    -0.02700
C1164       C  0.46562576  0.73186996  0.12528517     0.07000
C1165       C  0.47738795  0.77891635  0.13264032    -0.02800
C1166       C  0.50817790  0.78736018  0.13216702    -0.02800
C1167       C  0.52725044  0.74932743  0.12346428     0.07100
C1168       C  0.51538707  0.70202960  0.11664081    -0.03000
Br1169     Br  0.54077979  0.64937067  0.10432134    -0.01500
Br1170     Br  0.46892693  0.62812582  0.10911663    -0.01600
Br1171     Br  0.52401893  0.85219803  0.14124047    -0.01600
Br1172     Br  0.45122193  0.83316509  0.14090830    -0.01500
C1173       C  0.34372859  0.72054405  0.23906300    -0.02700
C1174       C  0.36992664  0.72015511  0.22426483     0.07000
C1175       C  0.39636099  0.73746298  0.23568519    -0.02800
C1176       C  0.39664631  0.75403859  0.26183868    -0.02800
C1177       C  0.37048006  0.75368134  0.27674406     0.07100
C1178       C  0.34400969  0.73721113  0.26506475    -0.03000
Br1179     Br  0.30795398  0.73553546  0.28477529    -0.01500
Br1180     Br  0.30690173  0.69966580  0.22344914    -0.01600
Br1181     Br  0.43273042  0.77920859  0.27688543    -0.01600
Br1182     Br  0.43242922  0.73677698  0.21584215    -0.01500
C1183       C  0.37322080  0.88698748  0.14594154    -0.02700
C1184       C  0.36800309  0.86329715  0.12165903     0.07000
C1185       C  0.36177017  0.89339168  0.09960355    -0.02800
C1186       C  0.36263242  0.94601020  0.10142977    -0.02800
C1187       C  0.36839850  0.96932950  0.12551148     0.07100
C1188       C  0.37356958  0.93957575  0.14774131    -0.03000
Br1189     Br  0.38329513  0.97069016  0.18075902    -0.01500
Br1190     Br  0.38104576  0.84891339  0.17717507    -0.01600
Br1191     Br  0.35496122  0.98579708  0.07081933    -0.01600
Br1192     Br  0.34980342  0.86354969  0.06688148    -0.01500
C1193       C  0.37323581  0.38696464  0.14751585    -0.02700
C1194       C  0.36960348  0.36293767  0.12310092     0.07000
C1195       C  0.36430833  0.39296844  0.10081873    -0.02800
C1196       C  0.36458600  0.44572458  0.10259771    -0.02800
C1197       C  0.36873879  0.46954067  0.12686680     0.07100
C1198       C  0.37318214  0.43973883  0.14926299    -0.03000
Br1199     Br  0.38180082  0.47099694  0.18244734    -0.01500
Br1200     Br  0.37897548  0.34888073  0.17906602    -0.01600
Br1201     Br  0.35858871  0.48485833  0.07146806    -0.01600
Br1202     Br  0.35408841  0.36265030  0.06775215    -0.01500
C1203       C  0.26380595  0.16274518  0.13983864    -0.02700
C1204       C  0.28062528  0.12237100  0.13039496     0.07000
C1205       C  0.26606951  0.07939772  0.12054414    -0.02800
C1206       C  0.23505758  0.07608001  0.12111305    -0.02800
C1207       C  0.21829398  0.11589075  0.13123029     0.07100
C1208       C  0.23280718  0.15972615  0.14004663    -0.03000
Br1209     Br  0.21022548  0.21611547  0.15232541    -0.01500
Br1210     Br  0.28336186  0.22231468  0.15266558    -0.01600
Br1211     Br  0.21579845  0.01487406  0.11037122    -0.01600
Br1212     Br  0.28842423  0.02270418  0.10853868    -0.01500
C1213       C  0.47810787  0.27046192  0.13828902    -0.02700
C1214       C  0.46653215  0.22616497  0.12709221     0.07000
C1215       C  0.48597135  0.19017079  0.11693818    -0.02800
C1216       C  0.51642176  0.20003406  0.11599512    -0.02800
C1217       C  0.52797440  0.24562054  0.12587242     0.07100
C1218       C  0.50880616  0.27976966  0.13808885    -0.03000
Br1219     Br  0.52422755  0.34123806  0.15250002    -0.01500
Br1220     Br  0.45180374  0.32097876  0.15129229    -0.01600
Br1221     Br  0.54208847  0.15079269  0.10051845    -0.01600
Br1222     Br  0.47060851  0.12741691  0.10372019    -0.01500
C1223       C  0.34789802  0.21127928  0.24130072    -0.02700
C1224       C  0.37285147  0.21422491  0.22491947     0.07000
C1225       C  0.39941322  0.23448567  0.23469201    -0.02800
C1226       C  0.40084636  0.25242986  0.26050791    -0.02800
C1227       C  0.37582537  0.24982865  0.27672875     0.07100
C1228       C  0.34934444  0.22941149  0.26697038    -0.03000
Br1229     Br  0.31481680  0.22605716  0.28885778    -0.01500
Br1230     Br  0.31116668  0.18371218  0.22852803    -0.01600
Br1231     Br  0.43663550  0.28298579  0.27321936    -0.01600
Br1232     Br  0.43427785  0.23533895  0.21320791    -0.01500
C1233       C  0.14883135  0.88667737  0.51444550    -0.02700
C1234       C  0.12202751  0.88177464  0.52813027     0.07000
C1235       C  0.09635750  0.86779449  0.51449844    -0.02800
C1236       C  0.09644662  0.86645254  0.48710613    -0.02800
C1237       C  0.12243671  0.87799694  0.47321954     0.07100
C1238       C  0.14904524  0.88472164  0.48699724    -0.03000
Br1239     Br  0.18526185  0.89691593  0.46836630    -0.01500
Br1240     Br  0.18479307  0.90089407  0.53305460    -0.01600
Br1241     Br  0.06072635  0.85025165  0.46854902    -0.01600
Br1242     Br  0.06110005  0.85078178  0.53357684    -0.01500
C1243       C  0.09659255  0.37759235  0.51365798    -0.02700
C1244       C  0.12340097  0.38622067  0.52690844     0.07000
C1245       C  0.14999532  0.38609619  0.51263380    -0.02800
C1246       C  0.14953484  0.38116771  0.48521889    -0.02800
C1247       C  0.12240571  0.37857932  0.47180721     0.07100
C1248       C  0.09609128  0.37400090  0.48630188    -0.03000
Br1249     Br  0.05905346  0.36359597  0.46858161    -0.01500
Br1250     Br  0.06015334  0.37264051  0.53295345    -0.01600
Br1251     Br  0.18607360  0.38267304  0.46605301    -0.01600
Br1252     Br  0.18679100  0.39963029  0.53010360    -0.01500
C1253       C  0.10550450  0.65538543  0.64206907    -0.02700
C1254       C  0.12522585  0.63224371  0.62460785     0.07000
C1255       C  0.14399404  0.66197317  0.60907293    -0.02800
C1256       C  0.14296537  0.71449449  0.61079673    -0.02800
C1257       C  0.12348227  0.73761818  0.62842888     0.07100
C1258       C  0.10483708  0.70795095  0.64413430    -0.03000
Br1259     Br  0.07744671  0.73946704  0.66774092    -0.01500
Br1260     Br  0.07822660  0.61542209  0.66217134    -0.01600
Br1261     Br  0.16936834  0.75452147  0.58980575    -0.01600
Br1262     Br  0.17221345  0.63058597  0.58623408    -0.01500
C1263       C  0.11104877  0.20781473  0.64610277    -0.02700
C1264       C  0.12581592  0.23762052  0.62740535     0.07000
C1265       C  0.14024825  0.21404545  0.60634564    -0.02800
C1266       C  0.13937923  0.16149081  0.60372863    -0.02800
C1267       C  0.12443564  0.13169740  0.62231947     0.07100
C1268       C  0.11078350  0.15523793  0.64383036    -0.03000
Br1269     Br  0.09066169  0.11629444  0.67018761    -0.01500
Br1270     Br  0.08962548  0.23861559  0.67445966    -0.01600
Br1271     Br  0.16068029  0.13050501  0.57542018    -0.01600
Br1272     Br  0.16311880  0.25297977  0.58178594    -0.01500
C1273       C  0.09726071  0.62258605  0.98579049    -0.02700
C1274       C  0.12312639  0.61652171  0.97087152     0.07000
C1275       C  0.15016793  0.60853559  0.98373862    -0.02800
C1276       C  0.15077276  0.60214405  0.01103053    -0.02800
C1277       C  0.12427731  0.60232132  0.02541304     0.07100
C1278       C  0.09775841  0.61480194  0.01285289    -0.03000
Br1279     Br  0.06174604  0.61923185  0.03270759    -0.01500
Br1280     Br  0.06072252  0.63974778  0.96892787    -0.01600
Br1281     Br  0.18747098  0.58793890  0.02828980    -0.01600
Br1282     Br  0.18582759  0.59991814  0.96382184    -0.01500
C1283       C  0.15910747  0.50937860  0.76328948    -0.02700
C1284       C  0.13200834  0.51725895  0.77617177     0.07000
C1285       C  0.10541403  0.50756778  0.76278619    -0.02800
C1286       C  0.10590300  0.49098322  0.73671805    -0.02800
C1287       C  0.13294341  0.48484747  0.72353128     0.07100
C1288       C  0.15959714  0.49353528  0.73711356    -0.03000
Br1289     Br  0.19715762  0.48552870  0.71988744    -0.01500
Br1290     Br  0.19590397  0.51835641  0.78172881    -0.01600
Br1291     Br  0.06930402  0.47385999  0.71966615    -0.01600
Br1292     Br  0.06799457  0.51925283  0.77952957    -0.01500
C1293       C  0.14895784  0.08416877  0.01268398    -0.02700
C1294       C  0.12462745  0.10107260  0.02727053     0.07000
C1295       C  0.10143010  0.12565535  0.01444230    -0.02800
C1296       C  0.10174666  0.13060227  0.98711103    -0.02800
C1297       C  0.12464898  0.10926294  0.97231207     0.07100
C1298       C  0.14859718  0.08694086  0.98524974     0.00200
Br1299     Br  0.17905789  0.05447096  0.96531593    -0.01500
Br1300     Br  0.18168613  0.05339251  0.03024896    -0.01600
Br1301     Br  0.07034792  0.16525942  0.96968934    -0.01600
Br1302     Br  0.06872831  0.15096046  0.03434555    -0.01500
C1303       C  0.10169813  0.79372920  0.88422780    -0.02700
C1304       C  0.12231396  0.77301557  0.86669286     0.07000
C1305       C  0.13930130  0.80587762  0.85080678    -0.02800
C1306       C  0.13746444  0.85818463  0.85413257    -0.02800
C1307       C  0.11782611  0.87859359  0.87252541     0.07100
C1308       C  0.09914558  0.84610444  0.88679078    -0.03000
Br1309     Br  0.06826844  0.87306021  0.90858198    -0.01500
Br1310     Br  0.07507798  0.75087013  0.90349352    -0.01600
Br1311     Br  0.16315508  0.90150179  0.83409708    -0.01600
Br1312     Br  0.16577190  0.78087405  0.82428593    -0.01500
C1313       C  0.14923457  0.29685675  0.89051160    -0.02700
C1314       C  0.12995038  0.27273441  0.87293952     0.07000
C1315       C  0.11090816  0.30154051  0.85735754    -0.02800
C1316       C  0.11051135  0.35393536  0.85987215    -0.02800
C1317       C  0.12997002  0.37816459  0.87729767     0.07100
C1318       C  0.14961902  0.34950296  0.89231475    -0.03000
Br1319     Br  0.17832425  0.38248504  0.91419983    -0.01500
Br1320     Br  0.17605181  0.25812250  0.91137778    -0.01600
Br1321     Br  0.08190302  0.39186539  0.84036147    -0.01600
Br1322     Br  0.08441456  0.26926180  0.83302273    -0.01500
C1323       C  0.09867850  0.00865301  0.73451738    -0.02700
C1324       C  0.12524577  0.99250086  0.72284060     0.07000
C1325       C  0.15167330  0.99513078  0.73736236    -0.02800
C1326       C  0.15125467  0.01047139  0.76355648    -0.02800
C1327       C  0.12480244  0.02662728  0.77518838     0.07100
C1328       C  0.09868108  0.02692912  0.76033883    -0.03000
Br1329     Br  0.06322626  0.05519525  0.77483027    -0.01500
Br1330     Br  0.06181591  0.00363543  0.71596025    -0.01600
Br1331     Br  0.18708803  0.00730115  0.78376262    -0.01600
Br1332     Br  0.18918131  0.98065517  0.72120020    -0.01500
C1333       C  0.90273971  0.86342848  0.98830419    -0.02700
C1334       C  0.87654319  0.86944870  0.97398309     0.07000
C1335       C  0.84927745  0.86698253  0.98722251    -0.02800
C1336       C  0.84853142  0.86892389  0.01474002    -0.02800
C1337       C  0.87509469  0.86921413  0.02904370     0.07100
C1338       C  0.90191053  0.86198830  0.01564855    -0.03000
Br1339     Br  0.93789318  0.85201779  0.03485475    -0.01500
Br1340     Br  0.94001409  0.85826013  0.97042983    -0.01600
Br1341     Br  0.81140193  0.87786852  0.03232601    -0.01600
Br1342     Br  0.81296735  0.86443388  0.96783129    -0.01500
C1343       C  0.98484687  0.96779320  0.86504426    -0.02700
C1344       C  0.96636863  0.99676232  0.88122818     0.07000
C1345       C  0.97831661  0.03917385  0.89417730    -0.02800
C1346       C  0.00870422  0.04947476  0.89292809    -0.02800
C1347       C  0.02732760  0.01861705  0.87816449     0.07100
C1348       C  0.01519685  0.97909236  0.86333290    -0.03000
Br1349     Br  0.04053491  0.93864413  0.84177816    -0.01500
Br1350     Br  0.96937805  0.91040910  0.84664424    -0.01600
Br1351     Br  0.02508423  0.10637674  0.91123431    -0.01600
Br1352     Br  0.95314837  0.08490693  0.91294338    -0.01500
C1353       C  0.89915559  0.35448483  0.98627148    -0.02700
C1354       C  0.87575892  0.37632538  0.97239159     0.07000
C1355       C  0.85076526  0.39328929  0.98608551    -0.02800
C1356       C  0.85021579  0.39187764  0.01353465    -0.02800
C1357       C  0.87490817  0.37463780  0.02741952     0.07100
C1358       C  0.89883553  0.35403855  0.01369982    -0.03000
Br1359     Br  0.93164738  0.32695817  0.03270827    -0.01500
Br1360     Br  0.93196828  0.32626273  0.96763506    -0.01600
Br1361     Br  0.81681537  0.41807719  0.03223680    -0.01600
Br1362     Br  0.81874526  0.42390742  0.96743337    -0.01500
C1363       C  0.85716697  0.63770313  0.86435676    -0.02700
C1364       C  0.88112276  0.61714830  0.87795894     0.07000
C1365       C  0.90268396  0.64943527  0.88877961    -0.02800
C1366       C  0.90021576  0.70181499  0.88609355    -0.02800
C1367       C  0.87611405  0.72255817  0.87257700     0.07100
C1368       C  0.85487130  0.68994806  0.86130002    -0.03000
Br1369     Br  0.82180541  0.71585810  0.84198438    -0.01500
Br1370     Br  0.82611185  0.59445685  0.85144898    -0.01600
Br1371     Br  0.93125931  0.74460240  0.89935162    -0.01600
Br1372     Br  0.93646408  0.62207268  0.90650482    -0.01500
C1373       C  0.88829635  0.19329524  0.85611170    -0.02700
C1374       C  0.87003932  0.22315442  0.87201768     0.07000
C1375       C  0.85207291  0.20002453  0.89099079    -0.02800
C1376       C  0.85257288  0.14759155  0.89417434    -0.02800
C1377       C  0.87087611  0.11775527  0.87829809     0.07100
C1378       C  0.88862383  0.14089137  0.85914160    -0.03000
Br1379     Br  0.91486148  0.10136471  0.83782623    -0.01500
Br1380     Br  0.91436873  0.22425538  0.83106535    -0.01600
Br1381     Br  0.82701102  0.11654747  0.91953948    -0.01600
Br1382     Br  0.82556307  0.23976239  0.91185819    -0.01500
C1383       C  0.98439384  0.51417067  0.86217899    -0.02700
C1384       C  0.97278964  0.47575874  0.87807539     0.07000
C1385       C  0.99200755  0.44446425  0.89182439    -0.02800
C1386       C  0.02251189  0.45353596  0.89121718    -0.02800
C1387       C  0.03403450  0.49541077  0.87757832     0.07100
C1388       C  0.01493560  0.52431818  0.86208180    -0.03000
Br1389     Br  0.02987299  0.58009755  0.84216397    -0.01500
Br1390     Br  0.95826875  0.55532269  0.84189818    -0.01600
Br1391     Br  0.04830837  0.40697761  0.90862483    -0.01600
Br1392     Br  0.97634951  0.38872800  0.91141398    -0.01500
C1393       C  0.84990873  0.59407172  0.51510618    -0.02700
C1394       C  0.87543564  0.60979298  0.52858389     0.07000
C1395       C  0.89947247  0.62905727  0.51429847    -0.02800
C1396       C  0.89939358  0.62717163  0.48688700    -0.02800
C1397       C  0.87519570  0.60634676  0.47348628     0.07100
C1398       C  0.84973633  0.59263483  0.48759561    -0.03000
Br1399     Br  0.81565359  0.56748338  0.46930283    -0.01500
Br1400     Br  0.81633795  0.56949084  0.53431918    -0.01600
Br1401     Br  0.93280649  0.65179135  0.46748549    -0.01600
Br1402     Br  0.93282151  0.65713384  0.53236831    -0.01500
C1403       C  0.98948176  0.54210950  0.60620024    -0.02700
C1404       C  0.97150079  0.50977021  0.62088318     0.07000
C1405       C  0.98463084  0.47407469  0.63739839    -0.02800
C1406       C  0.01551123  0.46751961  0.63714965    -0.02800
C1407       C  0.03344324  0.49874335  0.62154392     0.07100
C1408       C  0.02023788  0.53792618  0.60728592    -0.03000
Br1409     Br  0.04413906  0.58776554  0.58978697    -0.01500
Br1410     Br  0.97197842  0.59286825  0.58462025    -0.01600
Br1411     Br  0.03263221  0.41330111  0.65650208    -0.01600
Br1412     Br  0.96026119  0.43231540  0.65930686    -0.01500
C1413       C  0.88069835  0.52428235  0.77152168    -0.02700
C1414       C  0.87893526  0.47226490  0.77637948     0.07000
C1415       C  0.87910476  0.43874042  0.75501283    -0.02800
C1416       C  0.87836148  0.45690626  0.72925185    -0.02800
C1417       C  0.87833769  0.50897946  0.72443806     0.07100
C1418       C  0.88042342  0.54243309  0.74576163    -0.03000
Br1419     Br  0.88398269  0.61371092  0.73985106    -0.01500
Br1420     Br  0.88275676  0.57168312  0.79986500    -0.01600
Br1421     Br  0.87577095  0.40972780  0.70086275    -0.01600
Br1422     Br  0.88225089  0.36748044  0.76084754    -0.01500
C1423       C  0.85109890  0.08770943  0.48696499    -0.02700
C1424       C  0.87699186  0.10221212  0.47375600     0.07000
C1425       C  0.90107026  0.12131518  0.48793015    -0.02800
C1426       C  0.90033507  0.12165518  0.51531213    -0.02800
C1427       C  0.87536465  0.10337063  0.52863769     0.07100
C1428       C  0.85025231  0.08844476  0.51439626    -0.03000
Br1429     Br  0.81592699  0.06362875  0.53247952    -0.01500
Br1430     Br  0.81803813  0.06151662  0.46755082    -0.01600
Br1431     Br  0.93412028  0.14474151  0.53470458    -0.01600
Br1432     Br  0.93551804  0.14492754  0.46962970    -0.01500
C1433       C  0.85255724  0.83695907  0.61099144    -0.02700
C1434       C  0.86871252  0.86711043  0.62862374     0.07000
C1435       C  0.88451434  0.84401444  0.64895036    -0.02800
C1436       C  0.88670798  0.79148593  0.64984920    -0.02800
C1437       C  0.87152616  0.76130052  0.63157877     0.07100
C1438       C  0.85403709  0.78434092  0.61236952    -0.03000
Br1439     Br  0.83111847  0.74424307  0.58835353    -0.01500
Br1440     Br  0.82638397  0.86771522  0.58616366    -0.01600
Br1441     Br  0.91264260  0.76126606  0.67505159    -0.01600
Br1442     Br  0.90361140  0.88345985  0.67575176    -0.01500
C1443       C  0.89999244  0.33623224  0.61213942    -0.02700
C1444       C  0.87760449  0.36742192  0.62205714     0.07000
C1445       C  0.85308574  0.34596726  0.63465838    -0.02800
C1446       C  0.85094188  0.29363863  0.63741460    -0.02800
C1447       C  0.87311580  0.26208826  0.62705536     0.07100
C1448       C  0.89771786  0.28381476  0.61450489    -0.03000
Br1449     Br  0.92962508  0.24246727  0.60222514    -0.01500
Br1450     Br  0.93483390  0.36540933  0.59658578    -0.01600
Br1451     Br  0.81695968  0.26605038  0.65513136    -0.01600
Br1452     Br  0.82158325  0.38815768  0.64709370    -0.01500
C1453       C  0.01542186  0.04133166  0.61971209    -0.02700
C1454       C  0.02891295  0.99389890  0.62081270     0.07000
C1455       C  0.01129146  0.95058643  0.62308029    -0.02800
C1456       C  0.98035259  0.95455268  0.62342576    -0.02800
C1457       C  0.96687494  0.00196193  0.62241407     0.07100
C1458       C  0.98450271  0.04536111  0.62071882    -0.03000
Br1459     Br  0.96607121  0.10999937  0.61777788    -0.01500
Br1460     Br  0.03924313  0.10072652  0.61558459    -0.01600
Br1461     Br  0.95638574  0.89480839  0.62339964    -0.01600
Br1462     Br  0.02959158  0.88565376  0.62412766    -0.01500
C1463       C  0.89821378  0.00003040  0.73837091    -0.02700
C1464       C  0.87143393  0.01403180  0.72641033     0.07000
C1465       C  0.84493454  0.00970995  0.74081893    -0.02800
C1466       C  0.84522470  0.99125264  0.76648639    -0.02800
C1467       C  0.87192465  0.97749237  0.77842068     0.07100
C1468       C  0.89841095  0.98188458  0.76420667    -0.03000
Br1469     Br  0.93489172  0.96042459  0.77967253    -0.01500
Br1470     Br  0.93504203  0.00760709  0.71997026    -0.01600
Br1471     Br  0.80866771  0.98533987  0.78539555    -0.01600
Br1472     Br  0.80755049  0.02697227  0.72540335    -0.01500
C1473       C  0.40517842  0.85694114  0.51499260    -0.02700
C1474       C  0.37835759  0.84875224  0.52821698     0.07000
C1475       C  0.35171397  0.84994097  0.51402782    -0.02800
C1476       C  0.35231800  0.85158464  0.48656055    -0.02800
C1477       C  0.37953806  0.85204889  0.47324886     0.07100
C1478       C  0.40579273  0.85826922  0.48763414    -0.03000
Br1479     Br  0.44286227  0.86747056  0.46982594    -0.01500
Br1480     Br  0.44118774  0.86641311  0.53441722    -0.01600
Br1481     Br  0.31586497  0.84786196  0.46736231    -0.01600
Br1482     Br  0.31434869  0.84462261  0.53177546    -0.01500
C1483       C  0.26486727  0.89583410  0.61579634    -0.02700
C1484       C  0.27792065  0.85607993  0.62956137     0.07000
C1485       C  0.25987053  0.82114480  0.64246187    -0.02800
C1486       C  0.22920856  0.82814034  0.64362425    -0.02800
C1487       C  0.21617624  0.87032008  0.63174403     0.07100
C1488       C  0.23407861  0.90320856  0.61703323    -0.03000
Br1489     Br  0.21698500  0.96044039  0.60016716    -0.01500
Br1490     Br  0.28931693  0.94119531  0.59603681    -0.01600
Br1491     Br  0.20516234  0.77867779  0.66110688    -0.01600
Br1492     Br  0.27737706  0.76249499  0.65774259    -0.01500
C1493       C  0.35621837  0.35296133  0.51297830    -0.02700
C1494       C  0.38283634  0.35148556  0.52717790     0.07000
C1495       C  0.40967589  0.35828915  0.51369816    -0.02800
C1496       C  0.41028534  0.35821050  0.48629208    -0.02800
C1497       C  0.38396144  0.35215205  0.47198296     0.07100
C1498       C  0.35676384  0.35338201  0.48544415    -0.03000
Br1499     Br  0.32007413  0.35124185  0.46653456    -0.01500
Br1500     Br  0.31889912  0.35039495  0.53092673    -0.01600
Br1501     Br  0.44741352  0.36650700  0.46836428    -0.01600
Br1502     Br  0.44576408  0.36843018  0.53284075    -0.01500
C1503       C  0.35309622  0.52726689  0.64313766    -0.02700
C1504       C  0.37333878  0.49653707  0.62953815     0.07000
C1505       C  0.39371671  0.51877232  0.61232524    -0.02800
C1506       C  0.39346038  0.57082167  0.60817322    -0.02800
C1507       C  0.37381208  0.60187663  0.62233780     0.07100
C1508       C  0.35359524  0.57963361  0.63977212    -0.03000
Br1509     Br  0.32491497  0.62020416  0.65784128    -0.01500
Br1510     Br  0.32326079  0.49824277  0.66552475    -0.01600
Br1511     Br  0.42097796  0.59836620  0.58311946    -0.01600
Br1512     Br  0.42363616  0.47860669  0.59554281    -0.01500
C1513       C  0.39488005  0.01749459  0.61111197    -0.02700
C1514       C  0.37212603  0.99735074  0.62668184     0.07000
C1515       C  0.35122182  0.02983400  0.63807153    -0.02800
C1516       C  0.35343282  0.08192051  0.63435807    -0.02800
C1517       C  0.37651820  0.10217803  0.61923008     0.07100
C1518       C  0.39690122  0.06956951  0.60716187    -0.03000
Br1519     Br  0.42848297  0.09556910  0.58573799    -0.01500
Br1520     Br  0.42462626  0.97432848  0.59638727    -0.01600
Br1521     Br  0.32344667  0.12509921  0.64867745    -0.01600
Br1522     Br  0.31844741  0.00339058  0.65791368    -0.01500
C1523       C  0.23939232  0.40427854  0.61729273    -0.02700
C1524       C  0.22091289  0.36802329  0.62889351     0.07000
C1525       C  0.23334690  0.32350655  0.63878799    -0.02800
C1526       C  0.26404351  0.31720756  0.63897309    -0.02800
C1527       C  0.28251290  0.35446646  0.62855368     0.07100
C1528       C  0.27014010  0.39701609  0.61671161    -0.03000
Br1529     Br  0.29549572  0.44667671  0.60101762    -0.01500
Br1530     Br  0.22307752  0.46589594  0.60445464    -0.01600
Br1531     Br  0.28103732  0.25749414  0.65358625    -0.01600
Br1532     Br  0.20841620  0.27054738  0.65207209    -0.01500
C1533       C  0.35027304  0.62665920  0.98618636    -0.02700
C1534       C  0.37677985  0.62004789  0.97221719     0.07000
C1535       C  0.40253713  0.60695589  0.98589034    -0.02800
C1536       C  0.40257234  0.60603136  0.01331015    -0.02800
C1537       C  0.37698831  0.61881395  0.02732167     0.07100
C1538       C  0.35045143  0.62660850  0.01369028    -0.03000
Br1539     Br  0.31507604  0.64305351  0.03261420    -0.01500
Br1540     Br  0.31426016  0.64083441  0.96782900    -0.01600
Br1541     Br  0.43793597  0.58864292  0.03189832    -0.01600
Br1542     Br  0.43803669  0.59136289  0.96697499    -0.01500
C1543       C  0.26671150  0.67003703  0.86825891    -0.02700
C1544       C  0.28072808  0.62309297  0.86830479     0.07000
C1545       C  0.26377365  0.57896132  0.86942232    -0.02800
C1546       C  0.23291199  0.58137710  0.86809326    -0.02800
C1547       C  0.21882901  0.62819248  0.86735384     0.07100
C1548       C  0.23573926  0.67252251  0.86861225    -0.03000
Br1549     Br  0.21650097  0.73630707  0.87139228    -0.01500
Br1550     Br  0.28991028  0.73071470  0.86673006    -0.01600
Br1551     Br  0.21003035  0.52044470  0.86595487    -0.01600
Br1552     Br  0.28294324  0.51530287  0.87303853    -0.01500
C1553       C  0.39626578  0.72345071  0.76234712    -0.02700
C1554       C  0.37077268  0.72709983  0.77785205     0.07000
C1555       C  0.34449603  0.74453510  0.76681395    -0.02800
C1556       C  0.34306909  0.75566124  0.74011772    -0.02800
C1557       C  0.36872457  0.75317040  0.72432650     0.07100
C1558       C  0.39554675  0.73770345  0.73589016    -0.03000
Br1559     Br  0.43186887  0.73744411  0.71628412    -0.01500
Br1560     Br  0.43180249  0.69631539  0.77713489    -0.01600
Br1561     Br  0.30485743  0.77020190  0.72554531    -0.01600
Br1562     Br  0.31033059  0.75399657  0.78872342    -0.01500
C1563       C  0.40033168  0.10320816  0.98598121    -0.02700
C1564       C  0.37743741  0.12717096  0.97248148     0.07000
C1565       C  0.35250387  0.14399078  0.98623119    -0.02800
C1566       C  0.35167894  0.14086459  0.01357271    -0.02800
C1567       C  0.37602568  0.12192407  0.02727835     0.07100
C1568       C  0.39977332  0.10103524  0.01338414    -0.03000
Br1569     Br  0.43192464  0.07116639  0.03207846    -0.01500
Br1570     Br  0.43252890  0.07421618  0.96681590    -0.01600
Br1571     Br  0.31843693  0.16712169  0.03247402    -0.01600
Br1572     Br  0.32083102  0.17614934  0.96781467    -0.01500
C1573       C  0.35723802  0.94881302  0.89800667    -0.02700
C1574       C  0.37003050  0.97222131  0.87615931     0.07000
C1575       C  0.38354137  0.94290744  0.85673613    -0.02800
C1576       C  0.38340333  0.89046273  0.85851947    -0.02800
C1577       C  0.36974773  0.86662917  0.87997767     0.07100
C1578       C  0.35601356  0.89616801  0.89936794    -0.03000
Br1579     Br  0.33339354  0.86501387  0.92685005    -0.01500
Br1580     Br  0.34196476  0.98829240  0.92646700    -0.01600
Br1581     Br  0.40344264  0.85255310  0.83173246    -0.01600
Br1582     Br  0.40489600  0.97496786  0.82868181    -0.01500
C1583       C  0.35840589  0.43871117  0.85275569    -0.02700
C1584       C  0.37542336  0.47190344  0.86847405     0.07000
C1585       C  0.39587120  0.45140273  0.88617434    -0.02800
C1586       C  0.39839356  0.39903412  0.88891912    -0.02800
C1587       C  0.37999846  0.36607658  0.87448764     0.07100
C1588       C  0.36024205  0.38639880  0.85618954    -0.03000
Br1589     Br  0.33414267  0.34312772  0.83650244    -0.01500
Br1590     Br  0.33188623  0.46329232  0.82627906    -0.01600
Br1591     Br  0.42878584  0.37310663  0.91148677    -0.01600
Br1592     Br  0.42243975  0.49451952  0.90548993    -0.01500
C1593       C  0.26587208  0.08292701  0.87693988    -0.02700
C1594       C  0.28178211  0.12677546  0.87069282     0.07000
C1595       C  0.26651673  0.17078532  0.86449149    -0.02800
C1596       C  0.23559354  0.17016277  0.86283779    -0.02800
C1597       C  0.21963145  0.12620293  0.86903761     0.07100
C1598       C  0.23486274  0.08308154  0.87696043    -0.03000
Br1599     Br  0.21342799  0.02289956  0.88572624    -0.01500
Br1600     Br  0.28636207  0.02113204  0.88261220    -0.01600
Br1601     Br  0.21532697  0.22930008  0.85119586    -0.01600
Br1602     Br  0.28822661  0.23172794  0.85799408    -0.01500
C1603       C  0.40164710  0.21985793  0.76078731    -0.02700
C1604       C  0.37561569  0.21713515  0.77564712     0.07000
C1605       C  0.34856761  0.22994475  0.76415614    -0.02800
C1606       C  0.34724497  0.24370702  0.73777399    -0.02800
C1607       C  0.37329129  0.24636160  0.72253821     0.07100
C1608       C  0.40060889  0.23482661  0.73443402    -0.03000
Br1609     Br  0.43709489  0.24149806  0.71539387    -0.01500
Br1610     Br  0.43863783  0.20123653  0.77637820    -0.01600
Br1611     Br  0.30894888  0.25613134  0.72279298    -0.01600
Br1612     Br  0.31307392  0.22989585  0.78500409    -0.01500
C1613       C  0.64899051  0.65554474  0.51495438    -0.02700
C1614       C  0.62404425  0.63730841  0.52839076     0.07000
C1615       C  0.60046365  0.61610693  0.51423624    -0.02800
C1616       C  0.60122409  0.61530088  0.48683170    -0.02800
C1617       C  0.62553394  0.63575687  0.47336461     0.07100
C1618       C  0.64965515  0.65502696  0.48752540    -0.03000
Br1619     Br  0.68186395  0.68692713  0.46933496    -0.01500
Br1620     Br  0.68076638  0.68690624  0.53400276    -0.01600
Br1621     Br  0.56818436  0.58860423  0.46761063    -0.01600
Br1622     Br  0.56654879  0.58990309  0.53237878    -0.01500
C1623       C  0.73424470  0.58666188  0.62086045    -0.02700
C1624       C  0.72049708  0.62929724  0.63147622     0.07000
C1625       C  0.73767370  0.66897281  0.64125040    -0.02800
C1626       C  0.76847195  0.66469221  0.64213768    -0.02800
C1627       C  0.78223584  0.62064939  0.63307113     0.07100
C1628       C  0.76511446  0.58213597  0.62182216    -0.03000
Br1629     Br  0.78359152  0.52162040  0.60966322    -0.01500
Br1630     Br  0.71066172  0.53366841  0.60590059    -0.01600
Br1631     Br  0.79172484  0.71951388  0.65580062    -0.01600
Br1632     Br  0.71879588  0.72946237  0.65299726    -0.01500
C1633       C  0.51475164  0.78083209  0.61932800    -0.02700
C1634       C  0.52842375  0.73385417  0.62227421     0.07000
C1635       C  0.51099307  0.69142812  0.62796194    -0.02800
C1636       C  0.48010482  0.69585432  0.62949320    -0.02800
C1637       C  0.46651000  0.74152756  0.62312265     0.07100
C1638       C  0.48389087  0.78429519  0.61871646    -0.03000
Br1639     Br  0.46519034  0.84750147  0.61165819    -0.01500
Br1640     Br  0.53811120  0.84096077  0.61768713    -0.01600
Br1641     Br  0.45651434  0.64008326  0.64104855    -0.01600
Br1642     Br  0.52915260  0.62683162  0.63193070    -0.01500
C1643       C  0.65064460  0.14004947  0.51765928    -0.02700
C1644       C  0.62387307  0.13025084  0.53074814     0.07000
C1645       C  0.59856128  0.11791542  0.51614642    -0.02800
C1646       C  0.59931644  0.11962637  0.48876590    -0.02800
C1647       C  0.62537704  0.13375138  0.47569383     0.07100
C1648       C  0.65142521  0.14154002  0.49018720    -0.03000
Br1649     Br  0.68755906  0.15936198  0.47262539    -0.01500
Br1650     Br  0.68550425  0.15729423  0.53727426    -0.01600
Br1651     Br  0.56439789  0.10334639  0.46905243    -0.01600
Br1652     Br  0.56248268  0.10004280  0.53379004    -0.01500
C1653       C  0.63380241  0.89355238  0.64776765    -0.02700
C1654       C  0.62089965  0.87422585  0.62472377     0.07000
C1655       C  0.60806831  0.90818067  0.60679111    -0.02800
C1656       C  0.60705639  0.95974882  0.61245216    -0.02800
C1657       C  0.62156366  0.97946962  0.63460618     0.07100
C1658       C  0.63358439  0.94542625  0.65297026    -0.03000
Br1659     Br  0.64886489  0.96723067  0.68636191    -0.01500
Br1660     Br  0.65446985  0.85011933  0.67178915    -0.01600
Br1661     Br  0.58214097  0.00184641  0.59117586    -0.01600
Br1662     Br  0.59170550  0.88637363  0.57375411    -0.01500
C1663       C  0.64844632  0.39535026  0.64073174    -0.02700
C1664       C  0.63234754  0.37399627  0.61989880     0.07000
C1665       C  0.61954067  0.40637111  0.60118029    -0.02800
C1666       C  0.61901267  0.45841204  0.60545388    -0.02800
C1667       C  0.63411249  0.47973406  0.62687632     0.07100
C1668       C  0.65028344  0.44782095  0.64358970    -0.03000
Br1669     Br  0.67702608  0.47500855  0.66944302    -0.01500
Br1670     Br  0.67007260  0.35337856  0.66456539    -0.01600
Br1671     Br  0.59557659  0.49907279  0.58226208    -0.01600
Br1672     Br  0.60254284  0.38160241  0.56895749    -0.01500
C1673       C  0.73532530  0.15491162  0.62047928    -0.02700
C1674       C  0.71913152  0.11779423  0.63398371     0.07000
C1675       C  0.73402056  0.07578644  0.64399677    -0.02800
C1676       C  0.76486221  0.07331503  0.64282590    -0.02800
C1677       C  0.78105491  0.11259566  0.63153889     0.07100
C1678       C  0.76622825  0.15163418  0.61877666    -0.03000
Br1679     Br  0.78820114  0.20081058  0.59920474    -0.01500
Br1680     Br  0.71592002  0.21232492  0.60593654    -0.01600
Br1681     Br  0.78515340  0.01479229  0.65533397    -0.01600
Br1682     Br  0.71236115  0.02039758  0.65849357    -0.01500
C1683       C  0.51882119  0.28548472  0.61401392    -0.02700
C1684       C  0.53296885  0.24060226  0.62101325     0.07000
C1685       C  0.51597451  0.19978573  0.63013427    -0.02800
C1686       C  0.48505384  0.20304389  0.63067517    -0.02800
C1687       C  0.47109759  0.24612754  0.62112714     0.07100
C1688       C  0.48795087  0.28784789  0.61355218    -0.03000
Br1689     Br  0.46846913  0.34840319  0.60285439    -0.01500
Br1690     Br  0.54150697  0.34470573  0.60643148    -0.01600
Br1691     Br  0.46172481  0.14832218  0.64404729    -0.01600
Br1692     Br  0.53456756  0.13813000  0.64027162    -0.01500
C1693       C  0.59813656  0.87873016  0.98742432    -0.02700
C1694       C  0.62349447  0.86579808  0.97299684     0.07000
C1695       C  0.64973991  0.85460817  0.98651455    -0.02800
C1696       C  0.64960593  0.85099634  0.01402030    -0.02800
C1697       C  0.62337122  0.85934527  0.02816902     0.07100
C1698       C  0.59820215  0.87598040  0.01480255    -0.03000
Br1699     Br  0.56347098  0.89424870  0.03419824    -0.01500
Br1700     Br  0.56269798  0.89864350  0.96959054    -0.01600
Br1701     Br  0.68456492  0.82968440  0.03204296    -0.01600
Br1702     Br  0.68509793  0.83907030  0.96735089    -0.01500
C1703       C  0.73563562  0.91168027  0.85813553    -0.02700
C1704       C  0.71929474  0.87029403  0.86762153     0.07000
C1705       C  0.73439341  0.83016107  0.87943324    -0.02800
C1706       C  0.76546833  0.83067464  0.88080316    -0.02800
C1707       C  0.78155396  0.87120277  0.87039329     0.07100
C1708       C  0.76646892  0.91282318  0.86055670    -0.03000
Br1709     Br  0.78826247  0.97285836  0.85216359    -0.01500
Br1710     Br  0.71628943  0.96679111  0.84108044    -0.01600
Br1711     Br  0.78605134  0.77564819  0.89657007    -0.01600
Br1712     Br  0.71297981  0.77212458  0.89139930    -0.01500
C1713       C  0.50825480  0.80190032  0.88255250    -0.02700
C1714       C  0.52770217  0.76284062  0.87635092     0.07000
C1715       C  0.51623884  0.71543520  0.86935456    -0.02800
C1716       C  0.48567422  0.70625052  0.87015616    -0.02800
C1717       C  0.46645254  0.74420409  0.87838872     0.07100
C1718       C  0.47770661  0.79260494  0.88370168    -0.03000
Br1719     Br  0.45133576  0.84624848  0.89272105    -0.01500
Br1720     Br  0.52374203  0.86792387  0.88970336    -0.01600
Br1721     Br  0.47027781  0.64066126  0.86181399    -0.01600
Br1722     Br  0.54242160  0.66170656  0.86062591    -0.01500
C1723       C  0.59985000  0.75920535  0.76307658    -0.02700
C1724       C  0.62648665  0.76322066  0.77708658     0.07000
C1725       C  0.65312051  0.75073330  0.76463886    -0.02800
C1726       C  0.65333144  0.73572274  0.73833969    -0.02800
C1727       C  0.62659400  0.72986569  0.72437048     0.07100
C1728       C  0.59976959  0.74152313  0.73709244    -0.03000
Br1729     Br  0.56251601  0.73158717  0.71967170    -0.01500
Br1730     Br  0.56354837  0.78080251  0.77898331    -0.01600
Br1731     Br  0.69097904  0.72683051  0.72143674    -0.01600
Br1732     Br  0.68961394  0.75259677  0.78399193    -0.01500
C1733       C  0.59564634  0.37202715  0.98807323    -0.02700
C1734       C  0.62189250  0.36055025  0.97466049     0.07000
C1735       C  0.64816639  0.35484799  0.98901776    -0.02800
C1736       C  0.64759592  0.35597114  0.01657080    -0.02800
C1737       C  0.62062675  0.36193341  0.02996927     0.07100
C1738       C  0.59506646  0.37307890  0.01552361    -0.03000
Br1739     Br  0.55912222  0.39001037  0.03346337    -0.01500
Br1740     Br  0.56011931  0.38487179  0.96870325    -0.01600
Br1741     Br  0.68342771  0.34497457  0.03581147    -0.01600
Br1742     Br  0.68437657  0.33983550  0.97107392    -0.01500
C1743       C  0.61508767  0.54615328  0.85559452    -0.02700
C1744       C  0.62368277  0.51729985  0.87727944     0.07000
C1745       C  0.63055551  0.54156147  0.90087989    -0.02800
C1746       C  0.62927761  0.59425990  0.90268016    -0.02800
C1747       C  0.62153548  0.62358299  0.88061886     0.07100
C1748       C  0.61539661  0.59878084  0.85678117    -0.03000
Br1749     Br  0.60756033  0.63510646  0.82495395    -0.01500
Br1750     Br  0.60051680  0.51357753  0.82439811    -0.01600
Br1751     Br  0.64075644  0.62509350  0.93530696    -0.01600
Br1752     Br  0.64300138  0.50298100  0.93066639    -0.01500
C1753       C  0.65176403  0.09564202  0.88611481    -0.02700
C1754       C  0.63005043  0.12376633  0.87324673     0.07000
C1755       C  0.60819073  0.09890847  0.85849531    -0.02800
C1756       C  0.60741844  0.04619649  0.85754385    -0.02800
C1757       C  0.62895631  0.01802612  0.87067466     0.07100
C1758       C  0.65122179  0.04294600  0.88487395    -0.03000
Br1759     Br  0.68134222  0.00506778  0.90231482    -0.01500
Br1760     Br  0.68299227  0.12969241  0.90460411    -0.01600
Br1761     Br  0.57559177  0.01236763  0.83971696    -0.01600
Br1762     Br  0.57857028  0.13677307  0.84027424    -0.01500
C1763       C  0.73347070  0.32603997  0.85954831    -0.02700
C1764       C  0.71760705  0.36695191  0.86963577     0.07000
C1765       C  0.73316684  0.40804457  0.88037054    -0.02800
C1766       C  0.76430651  0.40896987  0.88011285    -0.02800
C1767       C  0.78011332  0.36919999  0.86869072     0.07100
C1768       C  0.76449425  0.32711223  0.85907635    -0.03000
Br1769     Br  0.78559948  0.26987709  0.84578255    -0.01500
Br1770     Br  0.71257132  0.26783822  0.84672909    -0.01600
Br1771     Br  0.78510615  0.46624545  0.89393801    -0.01600
Br1772     Br  0.71189828  0.46506534  0.89348016    -0.01500
C1773       C  0.51452424  0.27741727  0.86570543    -0.02700
C1774       C  0.53324205  0.24427330  0.87918253     0.07000
C1775       C  0.52122879  0.19966826  0.88980932    -0.02800
C1776       C  0.49068494  0.19069889  0.88893083    -0.02800
C1777       C  0.47193831  0.22568529  0.87726329     0.07100
C1778       C  0.48398240  0.26771210  0.86450545    -0.03000
Br1779     Br  0.45833228  0.31308338  0.84630754    -0.01500
Br1780     Br  0.52991262  0.33828376  0.85070283    -0.01600
Br1781     Br  0.47421405  0.12998134  0.90331350    -0.01600
Br1782     Br  0.54635328  0.14979055  0.90529853    -0.01500
C1783       C  0.59893036  0.25533454  0.76399533    -0.02700
C1784       C  0.62495653  0.27304334  0.77602176     0.07000
C1785       C  0.65180240  0.27171825  0.76207290    -0.02800
C1786       C  0.65258970  0.25364092  0.73637670    -0.02800
C1787       C  0.62665438  0.23611566  0.72432645     0.07100
C1788       C  0.59984001  0.23658934  0.73827742    -0.03000
Br1789     Br  0.56463410  0.20906611  0.72265590    -0.01500
Br1790     Br  0.56180690  0.25852333  0.78222267    -0.01600
Br1791     Br  0.68939014  0.25413130  0.71744677    -0.01600
Br1792     Br  0.68820470  0.29258121  0.77836065    -0.01500
loop_ 
_geom_bond_atom_site_label_1 
_geom_bond_atom_site_label_2 
_geom_bond_distance 
_geom_bond_site_symmetry_2 
_ccdc_geom_bond_type 
O1           Ni7   1.928       .  S
O1           C22   1.270       .  A
O2          Ni25   1.915       .  S
O2           C11   1.270       .  A
O3           Ni7   1.911       .  S
O3          Ni25   1.912       .  S
O3          Ni19   1.911       .  S
O3           H26   0.966       .  S
C4           O21   1.271       .  A
C4           O13   1.270       .  A
C4         C1744   1.486       .  S
O5          Ni24   1.922       .  S
O5           C11   1.270       .  A
O6          Ni24   1.902       .  S
O6            C8   1.270       .  A
Ni7          O10   1.920       .  S
Ni7          O12   1.907       .  S
C8           O18   1.281       .  A
C8         C1764   1.487       .  S
O9          Ni25   1.923       .  S
O9           C15   1.276       .  A
O10          C15   1.275       .  A
C11        C1784   1.486       .  S
O12          C14   1.269       .  A
O13         Ni24   1.924       .  S
C14          O20   1.274       .  A
C14        C1774   1.488       .  S
C15        C1754   1.479       .  S
H16          O17   0.965       .  S
O17         Ni25   1.927       .  S
O17         Ni19   1.922       .  S
O17         Ni24   1.918       .  S
O18         Ni19   1.960       .  S
Ni19         O23   1.934       .  S
Ni19         O21   1.916       .  S
O20         Ni25   1.935       .  S
C22          O23   1.272       .  A
C22        C1734   1.493       .  S
O27         Ni33   1.921       .  S
O27          C48   1.269       .  A
O28         Ni51   1.924       .  S
O28          C37   1.270       .  A
O29         Ni33   1.905       .  S
O29         Ni51   1.901       .  S
O29         Ni45   1.908       .  S
O29          H52   0.965       .  S
C30          O47   1.276       .  A
C30          O39   1.273       .  A
C30        C1757   1.480   1_565  S
O31         Ni50   1.927       .  S
O31          C37   1.270       .  A
O32         Ni50   1.909       .  S
O32          C34   1.270       .  A
Ni33         O36   1.925       .  S
Ni33         O38   1.902       .  S
C34          O44   1.276       .  A
C34        C1704   1.488       .  S
O35         Ni51   1.922       .  S
O35          C41   1.279       .  A
O36          C41   1.277       .  A
C37        C1724   1.490       .  S
O38          C40   1.266       .  A
O39         Ni50   1.918       .  S
C40          O46   1.273       .  A
C40        C1714   1.480       .  S
C41        C1747   1.498       .  S
H42          O43   0.966       .  S
O43         Ni51   1.924       .  S
O43         Ni45   1.929       .  S
O43         Ni50   1.918       .  S
O44         Ni45   1.942       .  S
Ni45         O49   1.936       .  S
Ni45         O47   1.925       .  S
O46         Ni51   1.942       .  S
C48          O49   1.274       .  A
C48        C1694   1.493       .  S
O53         Ni59   1.917       .  S
O53          C74   1.269       .  A
O54         Ni77   1.915       .  S
O54          C63   1.271       .  A
O55         Ni59   1.888       .  S
O55         Ni77   1.897       .  S
O55         Ni71   1.910       .  S
O55          H78   0.961       .  S
C56          O73   1.278       .  A
C56          O65   1.274       .  A
C56        C1657   1.501   1_545  S
O57         Ni76   1.928       .  S
O57          C63   1.273       .  A
O58         Ni76   1.917       .  S
O58          C60   1.272       .  A
Ni59         O62   1.910       .  S
Ni59         O64   1.917       .  S
C60          O70   1.271       .  A
C60        C1674   1.483       .  S
O61         Ni77   1.938       .  S
O61          C67   1.283       .  A
O62          C67   1.273       .  A
C63        C1787   1.482       .  S
O64          C66   1.270       .  A
O65         Ni76   1.921       .  S
C66          O72   1.269       .  A
C66        C1684   1.479       .  S
C67        C1664   1.495       .  S
H68          O69   0.964       .  S
O69         Ni77   1.916       .  S
O69         Ni71   1.909       .  S
O69         Ni76   1.895       .  S
O70         Ni71   1.925       .  S
Ni71         O75   1.928       .  S
Ni71         O73   1.919       .  S
O72         Ni77   1.919       .  S
C74          O75   1.272       .  A
C74        C1644   1.485       .  S
O79         Ni85   1.926       .  S
O79         C100   1.272       .  A
O80        Ni103   1.922       .  S
O80          C89   1.274       .  A
O81         Ni85   1.889       .  S
O81        Ni103   1.894       .  S
O81         Ni97   1.907       .  S
O81         H104   0.966       .  S
C82          O99   1.276       .  A
C82          O91   1.275       .  A
C82        C1667   1.493       .  S
O83        Ni102   1.930       .  S
O83          C89   1.274       .  A
O84        Ni102   1.913       .  S
O84          C86   1.271       .  A
Ni85         O88   1.917       .  S
Ni85         O90   1.919       .  S
C86          O96   1.271       .  A
C86        C1624   1.472       .  S
O87        Ni103   1.927       .  S
O87          C93   1.281       .  A
O88          C93   1.276       .  A
C89        C1727   1.500       .  S
O90          C92   1.271       .  A
O91        Ni102   1.922       .  S
C92          O98   1.272       .  A
C92        C1634   1.482       .  S
C93        C1654   1.497       .  S
H94          O95   0.966       .  S
O95        Ni103   1.917       .  S
O95         Ni97   1.911       .  S
O95        Ni102   1.896       .  S
O96         Ni97   1.924       .  S
Ni97        O101   1.921       .  S
Ni97         O99   1.914       .  S
O98        Ni103   1.929       .  S
C100        O101   1.273       .  A
C100       C1614   1.482       .  S
O105       Ni111   1.933       .  S
O105        C126   1.270       .  A
O106       Ni129   1.917       .  S
O106        C115   1.271       .  A
O107       Ni111   1.910       .  S
O107       Ni129   1.910       .  S
O107       Ni123   1.907       .  S
O107        H130   0.966       .  S
C108        O125   1.268       .  A
C108        O117   1.274       .  A
C108       C1574   1.477   1_545  S
O109       Ni128   1.924       .  S
O109        C115   1.271       .  A
O110       Ni128   1.899       .  S
O110        C112   1.267       .  A
Ni111       O114   1.921       .  S
Ni111       O116   1.911       .  S
C112        O122   1.275       .  A
C112       C1594   1.477       .  S
O113       Ni129   1.930       .  S
O113        C119   1.280       .  A
O114        C119   1.276       .  A
C115       C1604   1.483       .  S
O116        C118   1.269       .  A
O117       Ni128   1.928       .  S
C118        O124   1.270       .  A
C118       C1777   1.476       .  S
C119       C1587   1.495       .  S
H120        O121   0.966       .  S
O121       Ni129   1.925       .  S
O121       Ni123   1.919       .  S
O121       Ni128   1.914       .  S
O122       Ni123   1.947       .  S
Ni123       O127   1.911       .  S
Ni123       O125   1.904       .  S
O124       Ni129   1.926       .  S
C126        O127   1.265       .  A
C126       C1564   1.479       .  S
O131       Ni137   1.932       .  S
O131        C152   1.273       .  A
O132       Ni155   1.920       .  S
O132        C141   1.268       .  A
O133       Ni137   1.901       .  S
O133       Ni155   1.900       .  S
O133       Ni149   1.913       .  S
O133        H156   0.965       .  S
C134        O151   1.279       .  A
C134        O143   1.272       .  A
C134       C1584   1.498       .  S
O135       Ni154   1.923       .  S
O135        C141   1.268       .  A
O136       Ni154   1.910       .  S
O136        C138   1.269       .  A
Ni137       O140   1.925       .  S
Ni137       O142   1.906       .  S
C138        O148   1.270       .  A
C138       C1544   1.472       .  S
O139       Ni155   1.913       .  S
O139        C145   1.277       .  A
O140        C145   1.278       .  A
C141       C1554   1.480       .  S
O142        C144   1.268       .  A
O143       Ni154   1.916       .  S
C144        O150   1.272       .  A
C144       C1717   1.479       .  S
C145       C1577   1.484       .  S
H146        O147   0.966       .  S
O147       Ni155   1.916       .  S
O147       Ni149   1.922       .  S
O147       Ni154   1.914       .  S
O148       Ni149   1.926       .  S
Ni149       O153   1.926       .  S
Ni149       O151   1.931       .  S
O150       Ni155   1.932       .  S
C152        O153   1.273       .  A
C152       C1534   1.489       .  S
O157       Ni163   1.929       .  S
O157        C178   1.271       .  A
O158       Ni181   1.924       .  S
O158        C167   1.272       .  A
O159       Ni163   1.902       .  S
O159       Ni181   1.910       .  S
O159       Ni175   1.915       .  S
O159        H182   0.966       .  S
C160        O177   1.278       .  A
C160        O169   1.274       .  A
C160       C1504   1.485       .  S
O161       Ni180   1.922       .  S
O161        C167   1.270       .  A
O162       Ni180   1.910       .  S
O162        C164   1.271       .  A
Ni163       O166   1.922       .  S
Ni163       O168   1.906       .  S
C164        O174   1.272       .  A
C164       C1527   1.475       .  S
O165       Ni181   1.923       .  S
O165        C171   1.279       .  A
O166        C171   1.276       .  A
C167       C1607   1.498       .  S
O168        C170   1.268       .  A
O169       Ni180   1.916       .  S
C170        O176   1.269       .  A
C170       C1687   1.469       .  S
C171       C1517   1.484       .  S
H172        O173   0.966       .  S
O173       Ni181   1.918       .  S
O173       Ni175   1.913       .  S
O173       Ni180   1.902       .  S
O174       Ni175   1.926       .  S
Ni175       O179   1.927       .  S
Ni175       O177   1.918       .  S
O176       Ni181   1.923       .  S
C178        O179   1.272       .  A
C178       C1494   1.494       .  S
O183       Ni189   1.931       .  S
O183        C204   1.273       .  A
O184       Ni207   1.922       .  S
O184        C193   1.273       .  A
O185       Ni189   1.900       .  S
O185       Ni207   1.908       .  S
O185       Ni201   1.913       .  S
O185        H208   0.966       .  S
C186        O203   1.275       .  A
C186        O195   1.274       .  A
C186       C1514   1.483       .  S
O187       Ni206   1.921       .  S
O187        C193   1.271       .  A
O188       Ni206   1.912       .  S
O188        C190   1.271       .  A
Ni189       O192   1.916       .  S
Ni189       O194   1.914       .  S
C190        O200   1.273       .  A
C190       C1484   1.482       .  S
O191       Ni207   1.932       .  S
O191        C197   1.282       .  A
O192        C197   1.275       .  A
C193       C1557   1.498       .  S
O194        C196   1.270       .  A
O195       Ni206   1.920       .  S
C196        O202   1.270       .  A
C196       C1637   1.475       .  S
C197       C1507   1.489       .  S
H198        O199   0.966       .  S
O199       Ni207   1.923       .  S
O199       Ni201   1.910       .  S
O199       Ni206   1.902       .  S
O200       Ni201   1.934       .  S
Ni201       O205   1.913       .  S
Ni201       O203   1.916       .  S
O202       Ni207   1.927       .  S
C204        O205   1.268       .  A
C204       C1474   1.487       .  S
O209       Ni215   1.925   1_545  S
O209        C230   1.269       .  A
O210       Ni233   1.919       .  S
O210        C219   1.270       .  A
O211       Ni215   1.910   1_545  S
O211       Ni233   1.908       .  S
O211       Ni227   1.915       .  S
O211        H234   0.966       .  S
C212        O229   1.276       .  A
C212        O221   1.271       .  A
C212       C1447   1.486       .  S
O213       Ni232   1.930       .  S
O213        C219   1.271       .  A
O214       Ni232   1.908       .  S
O214        C216   1.270       .  A
Ni215       O218   1.922       .  S
Ni215       O220   1.901       .  S
C216        O226   1.270       .  A
C216       C1677   1.473       .  S
O217       Ni233   1.919   1_565  S
O217        C223   1.275       .  A
O218        C223   1.276       .  A
C219       C1464   1.497       .  S
O220        C222   1.267   1_565  A
O221       Ni232   1.915       .  S
C222        O228   1.275       .  A
C222       C1457   1.478       .  S
C223       C1434   1.486       .  S
H224        O225   0.966       .  S
O225       Ni233   1.918       .  S
O225       Ni227   1.928       .  S
O225       Ni232   1.917       .  S
O226       Ni227   1.926       .  S
Ni227       O231   1.924       .  S
Ni227       O229   1.922       .  S
O228       Ni233   1.942       .  S
C230        O231   1.270       .  A
C230       C1427   1.480       .  S
O235       Ni241   1.928       .  S
O235        C256   1.270       .  A
O236       Ni259   1.919       .  S
O236        C245   1.269       .  A
O237       Ni241   1.909       .  S
O237       Ni259   1.910       .  S
O237       Ni253   1.915       .  S
O237        H260   0.966       .  S
C238        O255   1.278       .  A
C238        O247   1.276       .  A
C238       C1437   1.485       .  S
O239       Ni258   1.935       .  S
O239        C245   1.272       .  A
O240       Ni258   1.900       .  S
O240        C242   1.268       .  A
Ni241       O244   1.920       .  S
Ni241       O246   1.909       .  S
C242        O252   1.274       .  A
C242       C1627   1.476       .  S
O243       Ni259   1.922       .  S
O243        C249   1.278       .  A
O244        C249   1.276       .  A
C245       C1417   1.494       .  S
O246        C248   1.269       .  A
O247       Ni258   1.922       .  S
C248        O254   1.270       .  A
C248       C1404   1.480       .  S
C249       C1444   1.479       .  S
H250        O251   0.966       .  S
O251       Ni259   1.916       .  S
O251       Ni253   1.918       .  S
O251       Ni258   1.910       .  S
O252       Ni253   1.934       .  S
Ni253       O257   1.932       .  S
Ni253       O255   1.923       .  S
O254       Ni259   1.925       .  S
C256        O257   1.272       .  A
C256       C1394   1.489       .  S
O261       Ni267   1.930       .  S
O261        C282   1.271       .  A
O262       Ni285   1.916       .  S
O262        C271   1.269       .  A
O263       Ni267   1.908       .  S
O263       Ni285   1.905       .  S
O263       Ni279   1.913       .  S
O263        H286   0.966       .  S
C264        O281   1.276       .  A
C264        O273   1.277       .  A
C264       C1374   1.485       .  S
O265       Ni284   1.939       .  S
O265        C271   1.274       .  A
O266       Ni284   1.909       .  S
O266        C268   1.270       .  A
Ni267       O270   1.923       .  S
Ni267       O272   1.910       .  S
C268        O278   1.276       .  A
C268       C1767   1.490       .  S
O269       Ni285   1.928       .  S
O269        C275   1.281       .  A
O270        C275   1.277       .  A
C271       C1414   1.495       .  S
O272        C274   1.269       .  A
O273       Ni284   1.929       .  S
C274        O280   1.269       .  A
C274       C1384   1.479       .  S
C275       C1364   1.485       .  S
H276        O277   0.966       .  S
O277       Ni285   1.917       .  S
O277       Ni279   1.915       .  S
O277       Ni284   1.910       .  S
O278       Ni279   1.943       .  S
Ni279       O283   1.923       .  S
Ni279       O281   1.919       .  S
O280       Ni285   1.924       .  S
C282        O283   1.271       .  A
C282       C1354   1.485       .  S
O287       Ni293   1.934       .  S
O287        C308   1.273       .  A
O288       Ni311   1.922       .  S
O288        C297   1.270       .  A
O289       Ni293   1.910       .  S
O289       Ni311   1.912       .  S
O289       Ni305   1.917       .  S
O289        H312   0.967       .  S
C290        O307   1.276       .  A
C290        O299   1.272       .  A
C290       C1367   1.491       .  S
O291       Ni310   1.932       .  S
O291        C297   1.270       .  A
O292       Ni310   1.911       .  S
O292        C294   1.270       .  A
Ni293       O296   1.931   1_565  S
Ni293       O298   1.905       .  S
C294        O304   1.271       .  A
C294       C1707   1.480       .  S
O295       Ni311   1.916   1_545  S
O295        C301   1.276       .  A
O296        C301   1.277       .  A
C297       C1467   1.490       .  S
O298        C300   1.269       .  A
O299       Ni310   1.921       .  S
C300        O306   1.275       .  A
C300       C1344   1.489       .  S
C301       C1377   1.485       .  S
H302        O303   0.966       .  S
O303       Ni311   1.919       .  S
O303       Ni305   1.927       .  S
O303       Ni310   1.920       .  S
O304       Ni305   1.934       .  S
Ni305       O309   1.921       .  S
Ni305       O307   1.923       .  S
O306       Ni311   1.938       .  S
C308        O309   1.269       .  A
C308       C1334   1.491       .  S
O313       Ni319   1.922       .  S
O313        C334   1.268       .  A
O314       Ni337   1.919       .  S
O314        C323   1.271       .  A
O315       Ni319   1.899       .  S
O315       Ni337   1.905       .  S
O315       Ni331   1.916       .  S
O315        H338   0.964       .  S
C316        O333   1.279       .  A
C316        O325   1.275       .  A
C316       C1314   1.477       .  S
O317       Ni336   1.926       .  S
O317        C323   1.271       .  A
O318       Ni336   1.904       .  S
O318        C320   1.268       .  A
Ni319       O322   1.919   1_545  S
Ni319       O324   1.907       .  S
C320        O330   1.274       .  A
C320       C1597   1.479       .  S
O321       Ni337   1.929   1_565  S
O321        C327   1.280       .  A
O322        C327   1.277       .  A
C323       C1327   1.485       .  S
O324        C326   1.269       .  A
O325       Ni336   1.915       .  S
C326        O332   1.272       .  A
C326       C1347   1.478       .  S
C327       C1307   1.488       .  S
H328        O329   0.966       .  S
O329       Ni337   1.916       .  S
O329       Ni331   1.915       .  S
O329       Ni336   1.906       .  S
O330       Ni331   1.936       .  S
Ni331       O335   1.932       .  S
Ni331       O333   1.924       .  S
O332       Ni337   1.931       .  S
C334        O335   1.273       .  A
C334       C1297   1.485       .  S
O339       Ni345   1.915       .  S
O339        C360   1.267       .  A
O340       Ni363   1.914       .  S
O340        C349   1.269       .  A
O341       Ni345   1.892       .  S
O341       Ni363   1.897       .  S
O341       Ni357   1.921       .  S
O341        H364   0.965       .  S
C342        O359   1.282       .  A
C342        O351   1.272       .  A
C342       C1304   1.495       .  S
O343       Ni362   1.926       .  S
O343        C349   1.270       .  A
O344       Ni362   1.916       .  S
O344        C346   1.270       .  A
Ni345       O348   1.924       .  S
Ni345       O350   1.895       .  S
C346        O356   1.270       .  A
C346       C1547   1.474       .  S
O347       Ni363   1.918       .  S
O347        C353   1.278       .  A
O348        C353   1.279       .  A
C349       C1284   1.487       .  S
O350        C352   1.266       .  A
O351       Ni362   1.912       .  S
C352        O358   1.275       .  A
C352       C1387   1.488       .  S
C353       C1317   1.478       .  S
H354        O355   0.966       .  S
O355       Ni363   1.919       .  S
O355       Ni357   1.919       .  S
O355       Ni362   1.909       .  S
O356       Ni357   1.925       .  S
Ni357       O361   1.933       .  S
Ni357       O359   1.936       .  S
O358       Ni363   1.939       .  S
C360        O361   1.274       .  A
C360       C1274   1.486       .  S
O365       Ni371   1.923       .  S
O365        C386   1.268       .  A
O366       Ni389   1.918       .  S
O366        C375   1.271       .  A
O367       Ni371   1.909       .  S
O367       Ni389   1.919       .  S
O367       Ni383   1.918       .  S
O367        H390   0.966       .  S
C368        O385   1.278       .  A
C368        O377   1.275       .  A
C368       C1264   1.487       .  S
O369       Ni388   1.924       .  S
O369        C375   1.268       .  A
O370       Ni388   1.898       .  S
O370        C372   1.267       .  A
Ni371       O374   1.920       .  S
Ni371       O376   1.896       .  S
C372        O382   1.275       .  A
C372       C1524   1.483       .  S
O373       Ni389   1.919       .  S
O373        C379   1.275       .  A
O374        C379   1.274       .  A
C375       C1287   1.488       .  S
O376        C378   1.267       .  A
O377       Ni388   1.916       .  S
C378        O384   1.276       .  A
C378       C1407   1.488       .  S
C379       C1254   1.477       .  S
H380        O381   0.966       .  S
O381       Ni389   1.913       .  S
O381       Ni383   1.913       .  S
O381       Ni388   1.911       .  S
O382       Ni383   1.943       .  S
Ni383       O387   1.928       .  S
Ni383       O385   1.923       .  S
O384       Ni389   1.947       .  S
C386        O387   1.272       .  A
C386       C1244   1.490       .  S
O391       Ni397   1.935       .  S
O391        C412   1.272       .  A
O392       Ni415   1.914       .  S
O392        C401   1.268       .  A
O393       Ni397   1.916       .  S
O393       Ni415   1.908       .  S
O393       Ni409   1.912       .  S
O393        H416   0.965       .  S
C394        O411   1.273       .  A
C394        O403   1.272       .  A
C394       C1257   1.475       .  S
O395       Ni414   1.924       .  S
O395        C401   1.270       .  A
O396       Ni414   1.909       .  S
O396        C398   1.270       .  A
Ni397       O400   1.929   1_565  S
Ni397       O402   1.907       .  S
C398        O408   1.276       .  A
C398       C1487   1.490       .  S
O399       Ni415   1.917   1_545  S
O399        C405   1.275       .  A
O400        C405   1.277       .  A
C401       C1324   1.491       .  S
O402        C404   1.268       .  A
O403       Ni414   1.918       .  S
C404        O410   1.274       .  A
C404       C1454   1.481       .  S
C405       C1267   1.490       .  S
H406        O407   0.966       .  S
O407       Ni415   1.917       .  S
O407       Ni409   1.917       .  S
O407       Ni414   1.915       .  S
O408       Ni409   1.943       .  S
Ni409       O413   1.915       .  S
Ni409       O411   1.913       .  S
O410       Ni415   1.940       .  S
C412        O413   1.268       .  A
C412       C1234   1.484       .  S
O417       Ni423   1.912       .  S
O417        C438   1.268       .  A
O418       Ni441   1.921       .  S
O418        C427   1.270       .  A
O419       Ni423   1.922       .  S
O419       Ni441   1.919       .  S
O419       Ni435   1.938       .  S
O419        H442   0.967       .  S
C420        O437   1.276       .  A
C420        O429   1.276       .  A
C420       C1194   1.501       .  S
O421       Ni440   1.929       .  S
O421        C427   1.269       .  A
O422       Ni440   1.895       .  S
O422        C424   1.265       .  A
Ni423       O426   1.922       .  S
Ni423       O428   1.900       .  S
C424        O434   1.276       .  A
C424       C1214   1.485       .  S
O425       Ni441   1.915       .  S
O425        C431   1.268       .  A
O426        C431   1.266       .  A
C427       C1567   1.479       .  S
O428        C430   1.272       .  A
O429       Ni440   1.930       .  S
C430        O436   1.283       .  A
C430       C1204   1.485       .  S
C431       C1187   1.482   1_545  S
H432        O433   0.966       .  S
O433       Ni441   1.904       .  S
O433       Ni435   1.906       .  S
O433       Ni440   1.914       .  S
O434       Ni435   1.951       .  S
Ni435       O439   1.916       .  S
Ni435       O437   1.924       .  S
O436       Ni441   1.964       .  S
C438        O439   1.271       .  A
C438       C1224   1.482       .  S
O443       Ni449   1.920       .  S
O443        C464   1.270       .  A
O444       Ni467   1.925       .  S
O444        C453   1.270       .  A
O445       Ni449   1.925       .  S
O445       Ni467   1.923       .  S
O445       Ni461   1.935       .  S
O445        H468   0.953       .  S
C446        O463   1.274       .  A
C446        O455   1.274       .  A
C446       C1184   1.492       .  S
O447       Ni466   1.927       .  S
O447        C453   1.269       .  A
O448       Ni466   1.896       .  S
O448        C450   1.266       .  A
Ni449       O452   1.933       .  S
Ni449       O454   1.904       .  S
C450        O460   1.277       .  A
C450       C1164   1.483       .  S
O451       Ni467   1.918       .  S
O451        C457   1.269       .  A
O452        C457   1.270       .  A
C453       C1537   1.486       .  S
O454        C456   1.271       .  A
O455       Ni466   1.922       .  S
C456        O462   1.281       .  A
C456       C1154   1.485       .  S
C457       C1197   1.493       .  S
H458        O459   0.964       .  S
O459       Ni467   1.905       .  S
O459       Ni461   1.907       .  S
O459       Ni466   1.914       .  S
O460       Ni461   1.952       .  S
Ni461       O465   1.920       .  S
Ni461       O463   1.916       .  S
O462       Ni467   1.958       .  S
C464        O465   1.271       .  A
C464       C1174   1.487       .  S
O469       Ni475   1.927       .  S
O469        C490   1.272       .  A
O470       Ni493   1.924       .  S
O470        C479   1.270       .  A
O471       Ni475   1.909       .  S
O471       Ni493   1.915       .  S
O471       Ni487   1.919       .  S
O471        H494   0.966       .  S
C472        O489   1.282       .  A
C472        O481   1.274       .  A
C472       C1124   1.486       .  S
O473       Ni492   1.925       .  S
O473        C479   1.271       .  A
O474       Ni492   1.916       .  S
O474        C476   1.270       .  A
Ni475       O478   1.925       .  S
Ni475       O480   1.901       .  S
C476        O486   1.272       .  A
C476       C1144   1.479       .  S
O477       Ni493   1.912       .  S
O477        C483   1.273       .  A
O478        C483   1.275       .  A
C479       C1497   1.494       .  S
O480        C482   1.267       .  A
O481       Ni492   1.911       .  S
C482        O488   1.278       .  A
C482       C1134   1.484       .  S
C483       C1114   1.485       .  S
H484        O485   0.967       .  S
O485       Ni493   1.912       .  S
O485       Ni487   1.908       .  S
O485       Ni492   1.906       .  S
O486       Ni487   1.932       .  S
Ni487       O491   1.917       .  S
Ni487       O489   1.936       .  S
O488       Ni493   1.954       .  S
C490        O491   1.272       .  A
C490       C1227   1.480       .  S
O495       Ni501   1.931       .  S
O495        C516   1.270       .  A
O496       Ni519   1.923       .  S
O496        C505   1.271       .  A
O497       Ni501   1.911       .  S
O497       Ni519   1.919       .  S
O497       Ni513   1.910       .  S
O497        H520   0.966       .  S
C498        O515   1.273       .  A
C498        O507   1.276       .  A
C498       C1117   1.489       .  S
O499       Ni518   1.925       .  S
O499        C505   1.270       .  A
O500       Ni518   1.896       .  S
O500        C502   1.265       .  A
Ni501       O504   1.914       .  S
Ni501       O506   1.913       .  S
C502        O512   1.275       .  A
C502       C1104   1.478       .  S
O503       Ni519   1.922       .  S
O503        C509   1.278       .  A
O504        C509   1.273       .  A
C505       C1477   1.487       .  S
O506        C508   1.270       .  A
O507       Ni518   1.925       .  S
C508        O514   1.270       .  A
C508       C1094   1.479       .  S
C509       C1127   1.484   1_565  S
H510        O511   0.966       .  S
O511       Ni519   1.916       .  S
O511       Ni513   1.913       .  S
O511       Ni518   1.908       .  S
O512       Ni513   1.946       .  S
Ni513       O517   1.921       .  S
Ni513       O515   1.913       .  S
O514       Ni519   1.929       .  S
C516        O517   1.270       .  A
C516       C1177   1.489       .  S
O521       Ni527   1.933       .  S
O521        C542   1.272       .  A
O522       Ni545   1.930       .  S
O522        C531   1.271       .  A
O523       Ni527   1.920       .  S
O523       Ni545   1.924       .  S
O523       Ni539   1.922       .  S
O523        H546   0.963       .  S
C524        O541   1.279       .  A
C524        O533   1.277       .  A
C524       C1064   1.482       .  S
O525       Ni544   1.931       .  S
O525        C531   1.271       .  A
O526       Ni544   1.904       .  S
O526        C528   1.268       .  A
Ni527       O530   1.923       .  S
Ni527       O532   1.912       .  S
C528        O538   1.276       .  A
C528       C1217   1.489       .  S
O529       Ni545   1.915       .  S
O529        C535   1.274       .  A
O530        C535   1.274       .  A
C531       C1737   1.496       .  S
O532        C534   1.271       .  A
O533       Ni544   1.920       .  S
C534        O540   1.276       .  A
C534       C1074   1.490       .  S
C535       C1057   1.481       .  S
H536        O537   0.964       .  S
O537       Ni545   1.909       .  S
O537       Ni539   1.910       .  S
O537       Ni544   1.906       .  S
O538       Ni539   1.946       .  S
Ni539       O543   1.923       .  S
Ni539       O541   1.924       .  S
O540       Ni545   1.946       .  S
C542        O543   1.272       .  A
C542       C1084   1.489       .  S
O547       Ni553   1.925       .  S
O547        C568   1.270       .  A
O548       Ni571   1.928       .  S
O548        C557   1.271       .  A
O549       Ni553   1.917       .  S
O549       Ni571   1.920       .  S
O549       Ni565   1.919       .  S
O549        H572   0.966       .  S
C550        O567   1.278       .  A
C550        O559   1.276       .  A
C550       C1054   1.482       .  S
O551       Ni570   1.934       .  S
O551        C557   1.273       .  A
O552       Ni570   1.909       .  S
O552        C554   1.270       .  A
Ni553       O556   1.915       .  S
Ni553       O558   1.907       .  S
C554        O564   1.276       .  A
C554       C1167   1.487       .  S
O555       Ni571   1.925       .  S
O555        C561   1.277       .  A
O556        C561   1.273       .  A
C557       C1697   1.492       .  S
O558        C560   1.268       .  A
O559       Ni570   1.923       .  S
C560        O566   1.274       .  A
C560       C1034   1.481       .  S
C561       C1067   1.486   1_565  S
H562        O563   0.965       .  S
O563       Ni571   1.910       .  S
O563       Ni565   1.913       .  S
O563       Ni570   1.907       .  S
O564       Ni565   1.947       .  S
Ni565       O569   1.927       .  S
Ni565       O567   1.922       .  S
O566       Ni571   1.939       .  S
C568        O569   1.273       .  A
C568       C1047   1.491       .  S
O573       Ni579   1.941       .  S
O573        C594   1.272       .  A
O574       Ni597   1.923       .  S
O574        C583   1.271       .  A
O575       Ni579   1.901       .  S
O575       Ni597   1.909       .  S
O575       Ni591   1.915       .  S
O575        H598   0.965       .  S
C576        O593   1.285       .  A
C576        O585   1.274       .  A
C576       C1014   1.497       .  S
O577       Ni596   1.928       .  S
O577        C583   1.272       .  A
O578       Ni596   1.924       .  S
O578        C580   1.271       .  A
Ni579       O582   1.929       .  S
Ni579       O584   1.901       .  S
C580        O590   1.268       .  A
C580       C1147   1.482       .  S
O581       Ni597   1.913       .  S
O581        C587   1.275       .  A
O582        C587   1.279       .  A
C583       C1647   1.487       .  S
O584        C586   1.268       .  A
O585       Ni596   1.913       .  S
C586        O592   1.275       .  A
C586       C1027   1.479       .  S
C587       C1004   1.479   1_545  S
H588        O589   0.964       .  S
O589       Ni597   1.909       .  S
O589       Ni591   1.905       .  S
O589       Ni596   1.899       .  S
O590       Ni591   1.921       .  S
Ni591       O595   1.920       .  S
Ni591       O593   1.940       .  S
O592       Ni597   1.938       .  S
C594        O595   1.271       .  A
C594       C1087   1.515       .  S
O599       Ni605   1.934       .  S
O599        C620   1.273       .  A
O600       Ni623   1.928       .  S
O600        C609   1.273       .  A
O601       Ni605   1.909       .  S
O601       Ni623   1.918       .  S
O601       Ni617   1.920       .  S
O601        H624   0.965       .  S
C602        O619   1.279       .  A
C602        O611   1.278       .  A
C602       C1007   1.477       .  S
O603       Ni622   1.919       .  S
O603        C609   1.267       .  A
O604       Ni622   1.898       .  S
O604        C606   1.266       .  A
Ni605       O608   1.926       .  S
Ni605       O610   1.912       .  S
C606        O616   1.274       .  A
C606       C1107   1.481       .  S
O607       Ni623   1.921       .  S
O607        C613   1.278       .  A
O608        C613   1.275       .  A
C609       C1617   1.480       .  S
O610        C612   1.271       .  A
O611       Ni622   1.920       .  S
C612        O618   1.272       .  A
C612        C994   1.475       .  S
C613       C1017   1.497       .  S
H614        O615   0.966       .  S
O615       Ni623   1.912       .  S
O615       Ni617   1.898       .  S
O615       Ni622   1.900       .  S
O616       Ni617   1.936       .  S
Ni617       O621   1.916       .  S
Ni617       O619   1.919       .  S
O618       Ni623   1.928       .  S
C620        O621   1.270       .  A
C620       C1044   1.493       .  S
O625       Ni631   1.918       .  S
O625        C646   1.269       .  A
O626       Ni649   1.917       .  S
O626        C635   1.266       .  A
O627       Ni631   1.918       .  S
O627       Ni649   1.919       .  S
O627       Ni643   1.926       .  S
O627        H650   0.965       .  S
C628        O645   1.277       .  A
C628        O637   1.274       .  A
C628        C954   1.480       .  S
O629       Ni648   1.923   1_545  S
O629        C635   1.267       .  A
O630       Ni648   1.902       .  S
O630        C632   1.267       .  A
Ni631       O634   1.924       .  S
Ni631       O636   1.903       .  S
C632        O642   1.276   1_565  A
C632        C974   1.480       .  S
O633       Ni649   1.913       .  S
O633        C639   1.270       .  A
O634        C639   1.271       .  A
C635       C1424   1.477       .  S
O636        C638   1.269       .  A
O637       Ni648   1.915       .  S
C638        O644   1.274       .  A
C638       C1024   1.478       .  S
C639        C967   1.485       .  S
H640        O641   0.966       .  S
O641       Ni649   1.912       .  S
O641       Ni643   1.909       .  S
O641       Ni648   1.916   1_545  S
O642       Ni643   1.940       .  S
Ni643       O647   1.919       .  S
Ni643       O645   1.922   1_545  S
O644       Ni649   1.944       .  S
C646        O647   1.272       .  A
C646        C984   1.485       .  S
O651       Ni657   1.925       .  S
O651        C672   1.269       .  A
O652       Ni675   1.924       .  S
O652        C661   1.270       .  A
O653       Ni657   1.920       .  S
O653       Ni675   1.924       .  S
O653       Ni669   1.920       .  S
O653        H676   0.966       .  S
C654        O671   1.276       .  A
C654        O663   1.275       .  A
C654        C964   1.493       .  S
O655       Ni674   1.933       .  S
O655        C661   1.271       .  A
O656       Ni674   1.904       .  S
O656        C658   1.268       .  A
Ni657       O660   1.915       .  S
Ni657       O662   1.906       .  S
C658        O668   1.276       .  A
C658        C934   1.488       .  S
O659       Ni675   1.917       .  S
O659        C665   1.274       .  A
O660        C665   1.272       .  A
C661       C1397   1.486       .  S
O662        C664   1.269       .  A
O663       Ni674   1.925       .  S
C664        O670   1.274       .  A
C664        C997   1.482       .  S
C665        C957   1.479       .  S
H666        O667   0.965       .  S
O667       Ni675   1.907       .  S
O667       Ni669   1.911       .  S
O667       Ni674   1.912       .  S
O668       Ni669   1.949       .  S
Ni669       O673   1.925       .  S
Ni669       O671   1.918       .  S
O670       Ni675   1.936       .  S
C672        O673   1.271       .  A
C672        C944   1.492       .  S
O677       Ni683   1.929       .  S
O677        C698   1.271       .  A
O678       Ni701   1.927       .  S
O678        C687   1.270       .  A
O679       Ni683   1.919       .  S
O679       Ni701   1.923       .  S
O679       Ni695   1.919       .  S
O679        H702   0.966       .  S
C680        O697   1.275       .  A
C680        O689   1.276       .  A
C680        C904   1.485       .  S
O681       Ni700   1.925       .  S
O681        C687   1.268       .  A
O682       Ni700   1.902       .  S
O682        C684   1.267       .  A
Ni683       O686   1.928       .  S
Ni683       O688   1.905       .  S
C684        O694   1.277       .  A
C684        C924   1.484       .  S
O685       Ni701   1.916       .  S
O685        C691   1.273       .  A
O686        C691   1.274       .  A
C687       C1357   1.482       .  S
O688        C690   1.268       .  A
O689       Ni700   1.920       .  S
C690        O696   1.277       .  A
C690       C1077   1.487       .  S
C691        C917   1.490       .  S
H692        O693   0.966       .  S
O693       Ni701   1.912       .  S
O693       Ni695   1.909       .  S
O693       Ni700   1.915       .  S
O694       Ni695   1.947       .  S
Ni695       O699   1.918       .  S
Ni695       O697   1.917       .  S
O696       Ni701   1.953       .  S
C698        O699   1.270       .  A
C698        C947   1.489       .  S
O703       Ni709   1.928       .  S
O703        C724   1.269       .  A
O704       Ni727   1.927       .  S
O704        C713   1.272       .  A
O705       Ni709   1.921       .  S
O705       Ni727   1.921       .  S
O705       Ni721   1.915       .  S
O705        H728   0.966       .  S
C706        O723   1.274       .  A
C706        O715   1.275       .  A
C706        C914   1.492       .  S
O707       Ni726   1.923       .  S
O707        C713   1.270       .  A
O708       Ni726   1.901       .  S
O708        C710   1.266       .  A
Ni709       O712   1.917       .  S
Ni709       O714   1.905       .  S
C710        O720   1.275       .  A
C710        C897   1.486       .  S
O711       Ni727   1.918       .  S
O711        C717   1.274       .  A
O712        C717   1.273       .  A
C713       C1337   1.490       .  S
O714        C716   1.267       .  A
O715       Ni726   1.925   1_545  S
C716        O722   1.276       .  A
C716       C1037   1.482       .  S
C717        C907   1.484       .  S
H718        O719   0.966       .  S
O719       Ni727   1.909       .  S
O719       Ni721   1.910       .  S
O719       Ni726   1.911       .  S
O720       Ni721   1.949       .  S
Ni721       O725   1.912       .  S
Ni721       O723   1.917   1_565  S
O722       Ni727   1.946       .  S
C724        O725   1.267       .  A
C724        C987   1.481       .  S
O729       Ni735   1.922       .  S
O729        C750   1.269       .  A
O730       Ni753   1.923       .  S
O730        C739   1.269       .  A
O731       Ni735   1.915       .  S
O731       Ni753   1.915       .  S
O731       Ni747   1.921       .  S
O731        H754   0.965       .  S
C732        O749   1.280       .  A
C732        O741   1.276       .  A
C732        C867   1.482       .  S
O733       Ni752   1.934   1_545  S
O733        C739   1.271       .  A
O734       Ni752   1.906       .  S
O734        C736   1.269       .  A
Ni735       O738   1.914       .  S
Ni735       O740   1.904       .  S
C736        O746   1.274   1_565  A
C736        C894   1.484       .  S
O737       Ni753   1.918       .  S
O737        C743   1.275       .  A
O738        C743   1.273       .  A
C739       C1294   1.486       .  S
O740        C742   1.268       .  A
O741       Ni752   1.920       .  S
C742        O748   1.276       .  A
C742       C1207   1.485       .  S
C743        C877   1.483       .  S
H744        O745   0.964       .  S
O745       Ni753   1.912       .  S
O745       Ni747   1.912       .  S
O745       Ni752   1.910   1_545  S
O746       Ni747   1.937       .  S
Ni747       O751   1.921   1_545  S
Ni747       O749   1.926   1_545  S
O748       Ni753   1.942       .  S
C750        O751   1.272   1_545  A
C750        C887   1.489       .  S
O755       Ni761   1.933       .  S
O755        C776   1.272       .  A
O756       Ni779   1.917       .  S
O756        C765   1.268       .  A
O757       Ni761   1.920       .  S
O757       Ni779   1.919       .  S
O757       Ni773   1.913       .  S
O757        H780   0.966       .  S
C758        O775   1.271       .  A
C758        O767   1.274       .  A
C758        C874   1.480       .  S
O759       Ni778   1.931       .  S
O759        C765   1.272       .  A
O760       Ni778   1.904       .  S
O760        C762   1.268       .  A
Ni761       O764   1.919       .  S
Ni761       O766   1.910       .  S
C762        O772   1.278       .  A
C762        C927   1.483       .  S
O763       Ni779   1.917       .  S
O763        C769   1.274       .  A
O764        C769   1.274       .  A
C765       C1277   1.484       .  S
O766        C768   1.270       .  A
O767       Ni778   1.924       .  S
C768        O774   1.274       .  A
C768       C1157   1.486       .  S
C769        C864   1.481       .  S
H770        O771   0.965       .  S
O771       Ni779   1.914       .  S
O771       Ni773   1.917       .  S
O771       Ni778   1.915       .  S
O772       Ni773   1.951       .  S
Ni773       O777   1.920       .  S
Ni773       O775   1.911       .  S
O774       Ni779   1.938       .  S
C776        O777   1.270       .  A
C776        C854   1.493       .  S
O781       Ni787   1.926       .  S
O781        C802   1.270       .  A
O782       Ni805   1.931       .  S
O782        C791   1.272       .  A
O783       Ni787   1.914       .  S
O783       Ni805   1.919       .  S
O783       Ni799   1.919       .  S
O783        H806   0.966       .  S
C784        O801   1.280       .  A
C784        O793   1.276       .  A
C784        C837   1.482       .  S
O785       Ni804   1.922       .  S
O785        C791   1.269       .  A
O786       Ni804   1.905       .  S
O786        C788   1.268       .  A
Ni787       O790   1.914       .  S
Ni787       O792   1.905       .  S
C788        O798   1.277       .  A
C788        C937   1.492       .  S
O789       Ni805   1.922       .  S
O789        C795   1.277       .  A
O790        C795   1.273       .  A
C791       C1247   1.492       .  S
O792        C794   1.269       .  A
O793       Ni804   1.917       .  S
C794        O800   1.276       .  A
C794       C1137   1.483       .  S
C795        C844   1.482       .  S
H796        O797   0.963       .  S
O797       Ni805   1.916       .  S
O797       Ni799   1.907       .  S
O797       Ni804   1.905       .  S
O798       Ni799   1.945       .  S
Ni799       O803   1.924       .  S
Ni799       O801   1.926       .  S
O800       Ni805   1.946       .  S
C802        O803   1.273       .  A
C802        C857   1.492       .  S
O807       Ni813   1.925       .  S
O807        C828   1.270       .  A
O808       Ni831   1.922       .  S
O808        C817   1.270       .  A
O809       Ni813   1.915       .  S
O809       Ni831   1.924       .  S
O809       Ni825   1.916       .  S
O809        H832   0.966       .  S
C810        O827   1.274       .  A
C810        O819   1.276       .  A
C810        C847   1.490       .  S
O811       Ni830   1.928       .  S
O811        C817   1.269       .  A
O812       Ni830   1.898       .  S
O812        C814   1.265       .  A
Ni813       O816   1.915       .  S
Ni813       O818   1.904       .  S
C814        O824   1.275       .  A
C814        C977   1.477       .  S
O815       Ni831   1.918       .  S
O815        C821   1.274       .  A
O816        C821   1.272       .  A
C817       C1237   1.485       .  S
O818        C820   1.269       .  A
O819       Ni830   1.923   1_545  S
C820        O826   1.275       .  A
C820       C1097   1.484       .  S
C821        C834   1.475       .  S
H822        O823   0.965       .  S
O823       Ni831   1.912       .  S
O823       Ni825   1.910       .  S
O823       Ni830   1.912       .  S
O824       Ni825   1.942       .  S
Ni825       O829   1.916       .  S
Ni825       O827   1.919   1_565  S
O826       Ni831   1.945       .  S
C828        O829   1.269       .  A
C828        C884   1.487       .  S
C833        C834   1.409       .  A
C833        C838   1.410       .  A
C833       Br840   1.931       .  S
C834        C835   1.410       .  A
C835        C836   1.406       .  A
C835       Br842   1.934       .  S
C836        C837   1.413       .  A
C836       Br841   1.934       .  S
C837        C838   1.415       .  A
C838       Br839   1.932       .  S
C843        C844   1.414       .  A
C843        C848   1.409       .  A
C843       Br850   1.936       .  S
C844        C845   1.410       .  A
C845        C846   1.408       .  A
C845       Br852   1.935       .  S
C846        C847   1.417       .  A
C846       Br851   1.935       .  S
C847        C848   1.417       .  A
C848       Br849   1.936       .  S
C853        C854   1.414       .  A
C853        C858   1.415       .  A
C853       Br860   1.931       .  S
C854        C855   1.414       .  A
C855        C856   1.411       .  A
C855       Br862   1.934       .  S
C856        C857   1.415       .  A
C856       Br861   1.934       .  S
C857        C858   1.414       .  A
C858       Br859   1.932       .  S
C863        C864   1.412       .  A
C863        C868   1.408       .  A
C863       Br870   1.933       .  S
C864        C865   1.412       .  A
C865        C866   1.409       .  A
C865       Br872   1.933       .  S
C866        C867   1.414       .  A
C866       Br871   1.933       .  S
C867        C868   1.412       .  A
C868       Br869   1.933       .  S
C873        C874   1.412       .  A
C873        C878   1.408       .  A
C873       Br880   1.935       .  S
C874        C875   1.412       .  A
C875        C876   1.407       .  A
C875       Br882   1.935       .  S
C876        C877   1.414       .  A
C876       Br881   1.935       .  S
C877        C878   1.416       .  A
C878       Br879   1.935       .  S
C883        C884   1.413       .  A
C883        C888   1.414       .  A
C883       Br890   1.931       .  S
C884        C885   1.413       .  A
C885        C886   1.408       .  A
C885       Br892   1.935       .  S
C886        C887   1.415   1_565  A
C886       Br891   1.935   1_565  S
C887        C888   1.414   1_545  A
C888       Br889   1.932   1_565  S
C893        C894   1.414       .  A
C893        C898   1.409   1_455  A
C893       Br900   1.932       .  S
C894        C895   1.409   1_565  A
C895        C896   1.411   1_455  A
C895       Br902   1.929       .  S
C896        C897   1.412   1_545  A
C896       Br901   1.921       .  S
C897        C898   1.409       .  A
C898       Br899   1.929       .  S
C903        C904   1.415       .  A
C903        C908   1.408       .  A
C903       Br910   1.937       .  S
C904        C905   1.416       .  A
C905        C906   1.409       .  A
C905       Br912   1.935       .  S
C906        C907   1.412       .  A
C906       Br911   1.934       .  S
C907        C908   1.414       .  A
C908       Br909   1.936       .  S
C913        C914   1.415       .  A
C913        C918   1.410       .  A
C913       Br920   1.936       .  S
C914        C915   1.419       .  A
C915        C916   1.409       .  A
C915       Br922   1.937       .  S
C916        C917   1.412       .  A
C916       Br921   1.934       .  S
C917        C918   1.417       .  A
C918       Br919   1.936       .  S
C923        C924   1.408       .  A
C923        C928   1.411   1_655  A
C923       Br930   1.930       .  S
C924        C925   1.414       .  A
C925        C926   1.412   1_655  A
C925       Br932   1.929       .  S
C926        C927   1.408       .  A
C926       Br931   1.930       .  S
C927        C928   1.412       .  A
C928       Br929   1.923       .  S
C933        C934   1.409       .  A
C933        C938   1.411   1_655  A
C933       Br940   1.932       .  S
C934        C935   1.413       .  A
C935        C936   1.414   1_655  A
C935       Br942   1.925       .  S
C936        C937   1.412       .  A
C936       Br941   1.930       .  S
C937        C938   1.417       .  A
C938       Br939   1.933       .  S
C943        C944   1.415       .  A
C943        C948   1.415       .  A
C943       Br950   1.930       .  S
C944        C945   1.414       .  A
C945        C946   1.409       .  A
C945       Br952   1.934       .  S
C946        C947   1.413       .  A
C946       Br951   1.933       .  S
C947        C948   1.413       .  A
C948       Br949   1.930       .  S
C953        C954   1.413       .  A
C953        C958   1.407       .  A
C953       Br960   1.935       .  S
C954        C955   1.413       .  A
C955        C956   1.408       .  A
C955       Br962   1.933       .  S
C956        C957   1.412       .  A
C956       Br961   1.934       .  S
C957        C958   1.412       .  A
C958       Br959   1.933       .  S
C963        C964   1.416       .  A
C963        C968   1.408       .  A
C963       Br970   1.936       .  S
C964        C965   1.422       .  A
C965        C966   1.410       .  A
C965       Br972   1.937       .  S
C966        C967   1.410       .  A
C966       Br971   1.935       .  S
C967        C968   1.414       .  A
C968       Br969   1.937       .  S
C973        C974   1.408   1_545  A
C973        C978   1.408   1_655  A
C973       Br980   1.929       .  S
C974        C975   1.415       .  A
C975        C976   1.410   1_655  A
C975       Br982   1.930       .  S
C976        C977   1.407       .  A
C976       Br981   1.931       .  S
C977        C978   1.410   1_565  A
C978       Br979   1.924       .  S
C983        C984   1.415       .  A
C983        C988   1.407   1_545  A
C983       Br990   1.934       .  S
C984        C985   1.412   1_545  A
C985        C986   1.412       .  A
C985       Br992   1.930       .  S
C986        C987   1.412       .  A
C986       Br991   1.930       .  S
C987        C988   1.409       .  A
C988       Br989   1.934       .  S
C993        C994   1.409       .  A
C993        C998   1.410       .  A
C993      Br1000   1.930       .  S
C994        C995   1.405       .  A
C995        C996   1.407       .  A
C995      Br1002   1.930       .  S
C996        C997   1.415       .  A
C996      Br1001   1.932       .  S
C997        C998   1.412       .  A
C998       Br999   1.928       .  S
C1003      C1004   1.413       .  A
C1003      C1008   1.408       .  A
C1003     Br1010   1.934       .  S
C1004      C1005   1.411       .  A
C1005      C1006   1.407       .  A
C1005     Br1012   1.932       .  S
C1006      C1007   1.412       .  A
C1006     Br1011   1.935       .  S
C1007      C1008   1.412       .  A
C1008     Br1009   1.933       .  S
C1013      C1014   1.423       .  A
C1013      C1018   1.408       .  A
C1013     Br1020   1.941       .  S
C1014      C1015   1.414       .  A
C1015      C1016   1.414       .  A
C1015     Br1022   1.936       .  S
C1016      C1017   1.422       .  A
C1016     Br1021   1.936       .  S
C1017      C1018   1.412       .  A
C1018     Br1019   1.937       .  S
C1023      C1024   1.408       .  A
C1023      C1028   1.408       .  A
C1023     Br1030   1.931       .  S
C1024      C1025   1.412       .  A
C1025      C1026   1.409       .  A
C1025     Br1032   1.926       .  S
C1026      C1027   1.409       .  A
C1026     Br1031   1.929       .  S
C1027      C1028   1.413       .  A
C1028     Br1029   1.931       .  S
C1033      C1034   1.409       .  A
C1033      C1038   1.410       .  A
C1033     Br1040   1.930       .  S
C1034      C1035   1.412       .  A
C1035      C1036   1.412       .  A
C1035     Br1042   1.929       .  S
C1036      C1037   1.410       .  A
C1036     Br1041   1.929       .  S
C1037      C1038   1.411       .  A
C1038     Br1039   1.927       .  S
C1043      C1044   1.414       .  A
C1043      C1048   1.410       .  A
C1043     Br1050   1.932       .  S
C1044      C1045   1.416       .  A
C1045      C1046   1.415       .  A
C1045     Br1052   1.932       .  S
C1046      C1047   1.413       .  A
C1046     Br1051   1.930       .  S
C1047      C1048   1.414       .  A
C1048     Br1049   1.934       .  S
C1053      C1054   1.412       .  A
C1053      C1058   1.409       .  A
C1053     Br1060   1.933       .  S
C1054      C1055   1.414       .  A
C1055      C1056   1.409       .  A
C1055     Br1062   1.934       .  S
C1056      C1057   1.411       .  A
C1056     Br1061   1.934       .  S
C1057      C1058   1.413       .  A
C1058     Br1059   1.933       .  S
C1063      C1064   1.412       .  A
C1063      C1068   1.409       .  A
C1063     Br1070   1.935       .  S
C1064      C1065   1.413       .  A
C1065      C1066   1.409       .  A
C1065     Br1072   1.934       .  S
C1066      C1067   1.413       .  A
C1066     Br1071   1.933   1_545  S
C1067      C1068   1.416       .  A
C1068     Br1069   1.935       .  S
C1073      C1074   1.411       .  A
C1073      C1078   1.414       .  A
C1073     Br1080   1.927       .  S
C1074      C1075   1.414       .  A
C1075      C1076   1.412       .  A
C1075     Br1082   1.931       .  S
C1076      C1077   1.410       .  A
C1076     Br1081   1.930       .  S
C1077      C1078   1.412       .  A
C1078     Br1079   1.926       .  S
C1083      C1084   1.408       .  A
C1083      C1088   1.414       .  A
C1083     Br1090   1.934       .  S
C1084      C1085   1.405       .  A
C1085      C1086   1.416       .  A
C1085     Br1092   1.934       .  S
C1086      C1087   1.431       .  A
C1086     Br1091   1.937       .  S
C1087      C1088   1.427       .  A
C1088     Br1089   1.937       .  S
C1093      C1094   1.411       .  A
C1093      C1098   1.415       .  A
C1093     Br1100   1.928       .  S
C1094      C1095   1.404       .  A
C1095      C1096   1.404       .  A
C1095     Br1102   1.926       .  S
C1096      C1097   1.414       .  A
C1096     Br1101   1.932       .  S
C1097      C1098   1.413       .  A
C1098     Br1099   1.926       .  S
C1103      C1104   1.408       .  A
C1103      C1108   1.408       .  A
C1103     Br1110   1.931       .  S
C1104      C1105   1.410       .  A
C1105      C1106   1.410       .  A
C1105     Br1112   1.922       .  S
C1106      C1107   1.409       .  A
C1106     Br1111   1.930       .  S
C1107      C1108   1.416       .  A
C1108     Br1109   1.933       .  S
C1113      C1114   1.415       .  A
C1113      C1118   1.407       .  A
C1113     Br1120   1.937       .  S
C1114      C1115   1.413       .  A
C1115      C1116   1.409       .  A
C1115     Br1122   1.936       .  S
C1116      C1117   1.417       .  A
C1116     Br1121   1.936       .  S
C1117      C1118   1.415       .  A
C1118     Br1119   1.936       .  S
C1123      C1124   1.411       .  A
C1123      C1128   1.408       .  A
C1123     Br1130   1.932       .  S
C1124      C1125   1.420       .  A
C1125      C1126   1.408       .  A
C1125     Br1132   1.936       .  S
C1126      C1127   1.411       .  A
C1126     Br1131   1.935   1_545  S
C1127      C1128   1.418       .  A
C1128     Br1129   1.937       .  S
C1133      C1134   1.409       .  A
C1133      C1138   1.411       .  A
C1133     Br1140   1.927       .  S
C1134      C1135   1.412       .  A
C1135      C1136   1.411       .  A
C1135     Br1142   1.923       .  S
C1136      C1137   1.408       .  A
C1136     Br1141   1.928       .  S
C1137      C1138   1.413       .  A
C1138     Br1139   1.930       .  S
C1143      C1144   1.410       .  A
C1143      C1148   1.410       .  A
C1143     Br1150   1.923       .  S
C1144      C1145   1.406       .  A
C1145      C1146   1.409       .  A
C1145     Br1152   1.929       .  S
C1146      C1147   1.411       .  A
C1146     Br1151   1.920       .  S
C1147      C1148   1.409       .  A
C1148     Br1149   1.930       .  S
C1153      C1154   1.411       .  A
C1153      C1158   1.411       .  A
C1153     Br1160   1.931       .  S
C1154      C1155   1.413       .  A
C1155      C1156   1.411       .  A
C1155     Br1162   1.930       .  S
C1156      C1157   1.410       .  A
C1156     Br1161   1.928       .  S
C1157      C1158   1.413       .  A
C1158     Br1159   1.932       .  S
C1163      C1164   1.407       .  A
C1163      C1168   1.408       .  A
C1163     Br1170   1.932       .  S
C1164      C1165   1.413       .  A
C1165      C1166   1.416       .  A
C1165     Br1172   1.926       .  S
C1166      C1167   1.411       .  A
C1166     Br1171   1.928       .  S
C1167      C1168   1.414       .  A
C1168     Br1169   1.930       .  S
C1173      C1174   1.412       .  A
C1173      C1178   1.408       .  A
C1173     Br1180   1.935       .  S
C1174      C1175   1.412       .  A
C1175      C1176   1.415       .  A
C1175     Br1182   1.930       .  S
C1176      C1177   1.414       .  A
C1176     Br1181   1.930       .  S
C1177      C1178   1.412       .  A
C1178     Br1179   1.926       .  S
C1183      C1184   1.418       .  A
C1183      C1188   1.408       .  A
C1183     Br1190   1.938       .  S
C1184      C1185   1.422       .  A
C1185      C1186   1.409       .  A
C1185     Br1192   1.937       .  S
C1186      C1187   1.409       .  A
C1186     Br1191   1.935       .  S
C1187      C1188   1.415       .  A
C1188     Br1189   1.939       .  S
C1193      C1194   1.418       .  A
C1193      C1198   1.412       .  A
C1193     Br1200   1.936       .  S
C1194      C1195   1.422       .  A
C1195      C1196   1.412       .  A
C1195     Br1202   1.937       .  S
C1196      C1197   1.412       .  A
C1196     Br1201   1.935       .  S
C1197      C1198   1.417       .  A
C1198     Br1199   1.937       .  S
C1203      C1204   1.410       .  A
C1203      C1208   1.410       .  A
C1203     Br1210   1.933       .  S
C1204      C1205   1.414       .  A
C1205      C1206   1.411       .  A
C1205     Br1212   1.928       .  S
C1206      C1207   1.410       .  A
C1206     Br1211   1.929       .  S
C1207      C1208   1.414       .  A
C1208     Br1209   1.932       .  S
C1213      C1214   1.413       .  A
C1213      C1218   1.415       .  A
C1213     Br1220   1.926       .  S
C1214      C1215   1.408       .  A
C1215      C1216   1.407       .  A
C1215     Br1222   1.934       .  S
C1216      C1217   1.416       .  A
C1216     Br1221   1.932       .  S
C1217      C1218   1.411       .  A
C1218     Br1219   1.928       .  S
C1223      C1224   1.414       .  A
C1223      C1228   1.406       .  A
C1223     Br1230   1.935       .  S
C1224      C1225   1.412       .  A
C1225      C1226   1.412       .  A
C1225     Br1232   1.930       .  S
C1226      C1227   1.411       .  A
C1226     Br1231   1.929       .  S
C1227      C1228   1.410       .  A
C1228     Br1229   1.932       .  S
C1233      C1234   1.411       .  A
C1233      C1238   1.412       .  A
C1233     Br1240   1.929       .  S
C1234      C1235   1.409       .  A
C1235      C1236   1.409       .  A
C1235     Br1242   1.930       .  S
C1236      C1237   1.412       .  A
C1236     Br1241   1.930       .  S
C1237      C1238   1.412       .  A
C1238     Br1239   1.930       .  S
C1243      C1244   1.414       .  A
C1243      C1248   1.410       .  A
C1243     Br1250   1.933       .  S
C1244      C1245   1.413       .  A
C1245      C1246   1.416       .  A
C1245     Br1252   1.930       .  S
C1246      C1247   1.414       .  A
C1246     Br1251   1.930       .  S
C1247      C1248   1.413       .  A
C1248     Br1249   1.933       .  S
C1253      C1254   1.412       .  A
C1253      C1258   1.408       .  A
C1253     Br1260   1.932       .  S
C1254      C1255   1.411       .  A
C1255      C1256   1.407       .  A
C1255     Br1262   1.931       .  S
C1256      C1257   1.410       .  A
C1256     Br1261   1.933       .  S
C1257      C1258   1.411       .  A
C1258     Br1259   1.933       .  S
C1263      C1264   1.416       .  A
C1263      C1268   1.409       .  A
C1263     Br1270   1.937       .  S
C1264      C1265   1.414       .  A
C1265      C1266   1.410       .  A
C1265     Br1272   1.936       .  S
C1266      C1267   1.416       .  A
C1266     Br1271   1.934       .  S
C1267      C1268   1.415       .  A
C1268     Br1269   1.936       .  S
C1273      C1274   1.413       .  A
C1273      C1278   1.408   1_556  A
C1273     Br1280   1.932       .  S
C1274      C1275   1.413       .  A
C1275      C1276   1.415   1_556  A
C1275     Br1282   1.930       .  S
C1276      C1277   1.412       .  A
C1276     Br1281   1.930       .  S
C1277      C1278   1.410       .  A
C1278     Br1279   1.932       .  S
C1283      C1284   1.414       .  A
C1283      C1288   1.410       .  A
C1283     Br1290   1.936       .  S
C1284      C1285   1.413       .  A
C1285      C1286   1.411       .  A
C1285     Br1292   1.931       .  S
C1286      C1287   1.413       .  A
C1286     Br1291   1.932       .  S
C1287      C1288   1.416       .  A
C1288     Br1289   1.935       .  S
C1293      C1294   1.411       .  A
C1293      C1298   1.413   1_554  A
C1293     Br1300   1.930       .  S
C1294      C1295   1.410       .  A
C1295      C1296   1.412   1_554  A
C1295     Br1302   1.928       .  S
C1296      C1297   1.411       .  A
C1296     Br1301   1.928       .  S
C1297      C1298   1.412       .  A
C1298     Br1299   1.930       .  S
C1303      C1304   1.414       .  A
C1303      C1308   1.410       .  A
C1303     Br1310   1.935       .  S
C1304      C1305   1.424       .  A
C1305      C1306   1.410       .  A
C1305     Br1312   1.937       .  S
C1306      C1307   1.410       .  A
C1306     Br1311   1.937       .  S
C1307      C1308   1.416       .  A
C1308     Br1309   1.936       .  S
C1313      C1314   1.411       .  A
C1313      C1318   1.409       .  A
C1313     Br1320   1.931       .  S
C1314      C1315   1.412       .  A
C1315      C1316   1.405       .  A
C1315     Br1322   1.935       .  S
C1316      C1317   1.412       .  A
C1316     Br1321   1.935       .  S
C1317      C1318   1.411       .  A
C1318     Br1319   1.931       .  S
C1323      C1324   1.417   1_545  A
C1323      C1328   1.414       .  A
C1323     Br1330   1.932       .  S
C1324      C1325   1.416       .  A
C1325      C1326   1.407   1_565  A
C1325     Br1332   1.936       .  S
C1326      C1327   1.411       .  A
C1326     Br1331   1.934       .  S
C1327      C1328   1.412       .  A
C1328     Br1329   1.931       .  S
C1333      C1334   1.410       .  A
C1333      C1338   1.407   1_556  A
C1333     Br1340   1.931       .  S
C1334      C1335   1.414       .  A
C1335      C1336   1.416   1_556  A
C1335     Br1342   1.929       .  S
C1336      C1337   1.414       .  A
C1336     Br1341   1.929       .  S
C1337      C1338   1.413       .  A
C1338     Br1339   1.931       .  S
C1343      C1344   1.414       .  A
C1343      C1348   1.412   1_655  A
C1343     Br1350   1.929       .  S
C1344      C1345   1.418   1_565  A
C1345      C1346   1.407   1_655  A
C1345     Br1352   1.934       .  S
C1346      C1347   1.405       .  A
C1346     Br1351   1.931       .  S
C1347      C1348   1.411   1_545  A
C1348     Br1349   1.931       .  S
C1353      C1354   1.411       .  A
C1353      C1358   1.411   1_556  A
C1353     Br1360   1.928       .  S
C1354      C1355   1.412       .  A
C1355      C1356   1.412   1_556  A
C1355     Br1362   1.930       .  S
C1356      C1357   1.411       .  A
C1356     Br1361   1.930       .  S
C1357      C1358   1.409       .  A
C1358     Br1359   1.929       .  S
C1363      C1364   1.409       .  A
C1363      C1368   1.409       .  A
C1363     Br1370   1.935       .  S
C1364      C1365   1.415       .  A
C1365      C1366   1.412       .  A
C1365     Br1372   1.934       .  S
C1366      C1367   1.414       .  A
C1366     Br1371   1.934       .  S
C1367      C1368   1.419       .  A
C1368     Br1369   1.934       .  S
C1373      C1374   1.413       .  A
C1373      C1378   1.409       .  A
C1373     Br1380   1.933       .  S
C1374      C1375   1.413       .  A
C1375      C1376   1.411       .  A
C1375     Br1382   1.933       .  S
C1376      C1377   1.413       .  A
C1376     Br1381   1.931       .  S
C1377      C1378   1.414       .  A
C1378     Br1379   1.935       .  S
C1383      C1384   1.413       .  A
C1383      C1388   1.412   1_655  A
C1383     Br1390   1.931       .  S
C1384      C1385   1.405       .  A
C1385      C1386   1.406   1_655  A
C1385     Br1392   1.932       .  S
C1386      C1387   1.419       .  A
C1386     Br1391   1.936       .  S
C1387      C1388   1.413       .  A
C1388     Br1389   1.930       .  S
C1393      C1394   1.413       .  A
C1393      C1398   1.415       .  A
C1393     Br1400   1.929       .  S
C1394      C1395   1.411       .  A
C1395      C1396   1.410       .  A
C1395     Br1402   1.925       .  S
C1396      C1397   1.409       .  A
C1396     Br1401   1.929       .  S
C1397      C1398   1.412       .  A
C1398     Br1399   1.929       .  S
C1403      C1404   1.406       .  A
C1403      C1408   1.403   1_655  A
C1403     Br1410   1.930       .  S
C1404      C1405   1.414       .  A
C1405      C1406   1.415   1_655  A
C1405     Br1412   1.931       .  S
C1406      C1407   1.413       .  A
C1406     Br1411   1.928       .  S
C1407      C1408   1.416       .  A
C1408     Br1409   1.936       .  S
C1413      C1414   1.414       .  A
C1413      C1418   1.412       .  A
C1413     Br1420   1.930       .  S
C1414      C1415   1.416       .  A
C1415      C1416   1.413       .  A
C1415     Br1422   1.934       .  S
C1416      C1417   1.414       .  A
C1416     Br1421   1.929       .  S
C1417      C1418   1.416       .  A
C1418     Br1419   1.935       .  S
C1423      C1424   1.411       .  A
C1423      C1428   1.411       .  A
C1423     Br1430   1.931       .  S
C1424      C1425   1.408       .  A
C1425      C1426   1.408       .  A
C1425     Br1432   1.929       .  S
C1426      C1427   1.410       .  A
C1426     Br1431   1.928       .  S
C1427      C1428   1.411       .  A
C1428     Br1429   1.930       .  S
C1433      C1434   1.414       .  A
C1433      C1438   1.410       .  A
C1433     Br1440   1.934       .  S
C1434      C1435   1.414       .  A
C1435      C1436   1.408       .  A
C1435     Br1442   1.935       .  S
C1436      C1437   1.414       .  A
C1436     Br1441   1.934       .  S
C1437      C1438   1.413       .  A
C1438     Br1439   1.934       .  S
C1443      C1444   1.413       .  A
C1443      C1448   1.409       .  A
C1443     Br1450   1.934       .  S
C1444      C1445   1.408       .  A
C1445      C1446   1.408       .  A
C1445     Br1452   1.934       .  S
C1446      C1447   1.420       .  A
C1446     Br1451   1.935       .  S
C1447      C1448   1.413       .  A
C1448     Br1449   1.932       .  S
C1453      C1454   1.412   1_545  A
C1453      C1458   1.410   1_455  A
C1453     Br1460   1.927       .  S
C1454      C1455   1.408       .  A
C1455      C1456   1.410   1_455  A
C1455     Br1462   1.929       .  S
C1456      C1457   1.411   1_565  A
C1456     Br1461   1.927       .  S
C1457      C1458   1.408       .  A
C1458     Br1459   1.930       .  S
C1463      C1464   1.416       .  A
C1463      C1468   1.416   1_545  A
C1463     Br1470   1.931       .  S
C1464      C1465   1.417       .  A
C1465      C1466   1.410   1_545  A
C1465     Br1472   1.934       .  S
C1466      C1467   1.411       .  A
C1466     Br1471   1.930       .  S
C1467      C1468   1.412       .  A
C1468     Br1469   1.930       .  S
C1473      C1474   1.411       .  A
C1473      C1478   1.408       .  A
C1473     Br1480   1.933       .  S
C1474      C1475   1.414       .  A
C1475      C1476   1.414       .  A
C1475     Br1482   1.931       .  S
C1476      C1477   1.413       .  A
C1476     Br1481   1.931       .  S
C1477      C1478   1.413       .  A
C1478     Br1479   1.931       .  S
C1483      C1484   1.412       .  A
C1483      C1488   1.415       .  A
C1483     Br1490   1.930       .  S
C1484      C1485   1.406       .  A
C1485      C1486   1.408       .  A
C1485     Br1492   1.931       .  S
C1486      C1487   1.416       .  A
C1486     Br1491   1.933       .  S
C1487      C1488   1.414       .  A
C1488     Br1489   1.928       .  S
C1493      C1494   1.414       .  A
C1493      C1498   1.416       .  A
C1493     Br1500   1.931       .  S
C1494      C1495   1.413       .  A
C1495      C1496   1.410       .  A
C1495     Br1502   1.930       .  S
C1496      C1497   1.413       .  A
C1496     Br1501   1.933       .  S
C1497      C1498   1.416       .  A
C1498     Br1499   1.931       .  S
C1503      C1504   1.419       .  A
C1503      C1508   1.410       .  A
C1503     Br1510   1.937       .  S
C1504      C1505   1.410       .  A
C1505      C1506   1.407       .  A
C1505     Br1512   1.937       .  S
C1506      C1507   1.421       .  A
C1506     Br1511   1.938       .  S
C1507      C1508   1.413       .  A
C1508     Br1509   1.935       .  S
C1513      C1514   1.412   1_545  A
C1513      C1518   1.409       .  A
C1513     Br1520   1.934   1_545  S
C1514      C1515   1.416   1_565  A
C1515      C1516   1.408       .  A
C1515     Br1522   1.935       .  S
C1516      C1517   1.411       .  A
C1516     Br1521   1.934       .  S
C1517      C1518   1.417       .  A
C1518     Br1519   1.935       .  S
C1523      C1524   1.411       .  A
C1523      C1528   1.412       .  A
C1523     Br1530   1.928       .  S
C1524      C1525   1.416       .  A
C1525      C1526   1.406       .  A
C1525     Br1532   1.933       .  S
C1526      C1527   1.405       .  A
C1526     Br1531   1.931       .  S
C1527      C1528   1.411       .  A
C1528     Br1529   1.930       .  S
C1533      C1534   1.413       .  A
C1533      C1538   1.414   1_556  A
C1533     Br1540   1.930       .  S
C1534      C1535   1.412       .  A
C1535      C1536   1.410   1_556  A
C1535     Br1542   1.930       .  S
C1536      C1537   1.410       .  A
C1536     Br1541   1.930       .  S
C1537      C1538   1.412       .  A
C1538     Br1539   1.930       .  S
C1543      C1544   1.410       .  A
C1543      C1548   1.409       .  A
C1543     Br1550   1.930       .  S
C1544      C1545   1.406       .  A
C1545      C1546   1.406       .  A
C1545     Br1552   1.925       .  S
C1546      C1547   1.409       .  A
C1546     Br1551   1.929       .  S
C1547      C1548   1.409       .  A
C1548     Br1549   1.924       .  S
C1553      C1554   1.409       .  A
C1553      C1558   1.414       .  A
C1553     Br1560   1.931       .  S
C1554      C1555   1.405       .  A
C1555      C1556   1.407       .  A
C1555     Br1562   1.934       .  S
C1556      C1557   1.422       .  A
C1556     Br1561   1.933       .  S
C1557      C1558   1.420       .  A
C1558     Br1559   1.933       .  S
C1563      C1564   1.409       .  A
C1563      C1568   1.411   1_556  A
C1563     Br1570   1.928       .  S
C1564      C1565   1.410       .  A
C1565      C1566   1.409   1_556  A
C1565     Br1572   1.931       .  S
C1566      C1567   1.409       .  A
C1566     Br1571   1.930       .  S
C1567      C1568   1.410       .  A
C1568     Br1569   1.927       .  S
C1573      C1574   1.410       .  A
C1573      C1578   1.409       .  A
C1573     Br1580   1.932       .  S
C1574      C1575   1.410       .  A
C1575      C1576   1.404       .  A
C1575     Br1582   1.937       .  S
C1576      C1577   1.416       .  A
C1576     Br1581   1.937       .  S
C1577      C1578   1.417       .  A
C1578     Br1579   1.934       .  S
C1583      C1584   1.424       .  A
C1583      C1588   1.412       .  A
C1583     Br1590   1.937       .  S
C1584      C1585   1.415       .  A
C1585      C1586   1.412       .  A
C1585     Br1592   1.936       .  S
C1586      C1587   1.419       .  A
C1586     Br1591   1.937       .  S
C1587      C1588   1.413       .  A
C1588     Br1589   1.936       .  S
C1593      C1594   1.410       .  A
C1593      C1598   1.409       .  A
C1593     Br1600   1.923       .  S
C1594      C1595   1.406       .  A
C1595      C1596   1.407       .  A
C1595     Br1602   1.928       .  S
C1596      C1597   1.414       .  A
C1596     Br1601   1.930       .  S
C1597      C1598   1.409       .  A
C1598     Br1599   1.929       .  S
C1603      C1604   1.409       .  A
C1603      C1608   1.415       .  A
C1603     Br1610   1.931       .  S
C1604      C1605   1.408       .  A
C1605      C1606   1.408       .  A
C1605     Br1612   1.935       .  S
C1606      C1607   1.420       .  A
C1606     Br1611   1.934       .  S
C1607      C1608   1.420       .  A
C1608     Br1609   1.932       .  S
C1613      C1614   1.412       .  A
C1613      C1618   1.411       .  A
C1613     Br1620   1.931       .  S
C1614      C1615   1.411       .  A
C1615      C1616   1.410       .  A
C1615     Br1622   1.929       .  S
C1616      C1617   1.411       .  A
C1616     Br1621   1.930       .  S
C1617      C1618   1.410       .  A
C1618     Br1619   1.931       .  S
C1623      C1624   1.411       .  A
C1623      C1628   1.409       .  A
C1623     Br1630   1.929       .  S
C1624      C1625   1.405       .  A
C1625      C1626   1.405       .  A
C1625     Br1632   1.929       .  S
C1626      C1627   1.413       .  A
C1626     Br1631   1.932       .  S
C1627      C1628   1.409       .  A
C1628     Br1629   1.928       .  S
C1633      C1634   1.412       .  A
C1633      C1638   1.406       .  A
C1633     Br1640   1.922       .  S
C1634      C1635   1.410       .  A
C1635      C1636   1.411       .  A
C1635     Br1642   1.928       .  S
C1636      C1637   1.410       .  A
C1636     Br1641   1.925       .  S
C1637      C1638   1.404       .  A
C1638     Br1639   1.930       .  S
C1643      C1644   1.413       .  A
C1643      C1648   1.414       .  A
C1643     Br1650   1.931       .  S
C1644      C1645   1.411       .  A
C1645      C1646   1.409       .  A
C1645     Br1652   1.931       .  S
C1646      C1647   1.411       .  A
C1646     Br1651   1.930       .  S
C1647      C1648   1.413       .  A
C1648     Br1649   1.931       .  S
C1653      C1654   1.417       .  A
C1653      C1658   1.411       .  A
C1653     Br1660   1.943       .  S
C1654      C1655   1.423       .  A
C1655      C1656   1.408       .  A
C1655     Br1662   1.942       .  S
C1656      C1657   1.416       .  A
C1656     Br1661   1.941   1_565  S
C1657      C1658   1.424       .  A
C1658     Br1659   1.940       .  S
C1663      C1664   1.415       .  A
C1663      C1668   1.411       .  A
C1663     Br1670   1.936       .  S
C1664      C1665   1.423       .  A
C1665      C1666   1.407       .  A
C1665     Br1672   1.942       .  S
C1666      C1667   1.415       .  A
C1666     Br1671   1.939       .  S
C1667      C1668   1.420       .  A
C1668     Br1669   1.939       .  S
C1673      C1674   1.414       .  A
C1673      C1678   1.410       .  A
C1673     Br1680   1.927       .  S
C1674      C1675   1.412       .  A
C1675      C1676   1.404       .  A
C1675     Br1682   1.924       .  S
C1676      C1677   1.404       .  A
C1676     Br1681   1.932       .  S
C1677      C1678   1.409       .  A
C1678     Br1679   1.930       .  S
C1683      C1684   1.411       .  A
C1683      C1688   1.404       .  A
C1683     Br1690   1.924       .  S
C1684      C1685   1.413       .  A
C1685      C1686   1.408       .  A
C1685     Br1692   1.929       .  S
C1686      C1687   1.407       .  A
C1686     Br1691   1.928       .  S
C1687      C1688   1.404       .  A
C1688     Br1689   1.930       .  S
C1693      C1694   1.414       .  A
C1693      C1698   1.410   1_556  A
C1693     Br1700   1.932       .  S
C1694      C1695   1.415       .  A
C1695      C1696   1.418   1_556  A
C1695     Br1702   1.930       .  S
C1696      C1697   1.414       .  A
C1696     Br1701   1.929       .  S
C1697      C1698   1.409       .  A
C1698     Br1699   1.930       .  S
C1703      C1704   1.416       .  A
C1703      C1708   1.406       .  A
C1703     Br1710   1.932       .  S
C1704      C1705   1.415       .  A
C1705      C1706   1.413       .  A
C1705     Br1712   1.927       .  S
C1706      C1707   1.409       .  A
C1706     Br1711   1.928       .  S
C1707      C1708   1.405       .  A
C1708     Br1709   1.929       .  S
C1713      C1714   1.407       .  A
C1713      C1718   1.410       .  A
C1713     Br1720   1.930       .  S
C1714      C1715   1.412       .  A
C1715      C1716   1.409       .  A
C1715     Br1722   1.921       .  S
C1716      C1717   1.406       .  A
C1716     Br1721   1.930       .  S
C1717      C1718   1.414       .  A
C1718     Br1719   1.929       .  S
C1723      C1724   1.412       .  A
C1723      C1728   1.416       .  A
C1723     Br1730   1.931       .  S
C1724      C1725   1.410       .  A
C1725      C1726   1.410       .  A
C1725     Br1732   1.935       .  S
C1726      C1727   1.419       .  A
C1726     Br1731   1.933       .  S
C1727      C1728   1.418       .  A
C1728     Br1729   1.932       .  S
C1733      C1734   1.412       .  A
C1733      C1738   1.412   1_556  A
C1733     Br1740   1.930       .  S
C1734      C1735   1.413       .  A
C1735      C1736   1.417   1_556  A
C1735     Br1742   1.929       .  S
C1736      C1737   1.415       .  A
C1736     Br1741   1.930       .  S
C1737      C1738   1.413       .  A
C1738     Br1739   1.930       .  S
C1743      C1744   1.414       .  A
C1743      C1748   1.407       .  A
C1743     Br1750   1.938       .  S
C1744      C1745   1.409       .  A
C1745      C1746   1.412       .  A
C1745     Br1752   1.935       .  S
C1746      C1747   1.426       .  A
C1746     Br1751   1.938       .  S
C1747      C1748   1.419       .  A
C1748     Br1749   1.939       .  S
C1753      C1754   1.410       .  A
C1753      C1758   1.409       .  A
C1753     Br1760   1.930       .  S
C1754      C1755   1.412       .  A
C1755      C1756   1.409       .  A
C1755     Br1762   1.933       .  S
C1756      C1757   1.412       .  A
C1756     Br1761   1.931       .  S
C1757      C1758   1.411       .  A
C1758     Br1759   1.930       .  S
C1763      C1764   1.410       .  A
C1763      C1768   1.410       .  A
C1763     Br1770   1.932       .  S
C1764      C1765   1.413       .  A
C1765      C1766   1.415       .  A
C1765     Br1772   1.928       .  S
C1766      C1767   1.412       .  A
C1766     Br1771   1.928       .  S
C1767      C1768   1.414       .  A
C1768     Br1769   1.933       .  S
C1773      C1774   1.414       .  A
C1773      C1778   1.411       .  A
C1773     Br1780   1.929       .  S
C1774      C1775   1.418       .  A
C1775      C1776   1.407       .  A
C1775     Br1782   1.933       .  S
C1776      C1777   1.404       .  A
C1776     Br1781   1.931       .  S
C1777      C1778   1.409       .  A
C1778     Br1779   1.931       .  S
C1783      C1784   1.413       .  A
C1783      C1788   1.414       .  A
C1783     Br1790   1.931       .  S
C1784      C1785   1.415       .  A
C1785      C1786   1.406       .  A
C1785     Br1792   1.933       .  S
C1786      C1787   1.409       .  A
C1786     Br1791   1.934       .  S
C1787      C1788   1.413       .  A
C1788     Br1789   1.931       .  S
