geometry optimzed in LAMMPS
_audit_creation_date              2020-12-01 
_audit_creation_method            'lammps2cif' 
_symmetry_space_group_name_H-M    'P1' 
_symmetry_Int_Tables_number       1 
_symmetry_cell_setting            triclinic 
loop_ 
_symmetry_equiv_pos_as_xyz 
  x,y,z 
_cell_length_a                    55.81788425 
_cell_length_b                    22.085419575238518 
_cell_length_c                    118.63817740645652 
_cell_angle_alpha                 89.95334077498026 
_cell_angle_beta                  88.97914733696176 
_cell_angle_gamma                 90.01111050042155 
loop_ 
_atom_site_label 
_atom_site_type_symbol 
_atom_site_fract_x 
_atom_site_fract_y 
_atom_site_fract_z 
_atom_site_charge 
O1          O  0.70262603  0.04484784  0.17853303    -0.74800
O2          O  0.76964928  0.99766322  0.17641653    -0.74900
O3          O  0.73682442  0.04360042  0.16194664    -0.74900
O4          O  0.73562625  0.00362545  0.19295389    -0.75000
O5          O  0.72527039  0.90841060  0.18919954    -0.74900
O6          O  0.72555959  0.95022760  0.15736008    -0.74900
O7          O  0.75785805  0.90454417  0.17193125    -0.74800
O8          O  0.69268675  0.94981813  0.17445085    -0.74900
Ni9        Ni  0.73662281  0.02579082  0.17757369     1.25400
Ni10       Ni  0.72500561  0.92490832  0.17306418     1.25400
C11         C  0.68660526  0.00377078  0.17704557     0.87400
C12         C  0.77457431  0.94224648  0.17391144     0.87300
C13         C  0.73114459  0.00476729  0.15449736     0.87300
C14         C  0.72993361  0.95061199  0.19632217     0.87500
O15         O  0.75456243  0.82851139  0.30072094    -0.74800
O16         O  0.68744479  0.87360555  0.30229042    -0.74900
O17         O  0.72118787  0.86211832  0.28560563    -0.74900
O18         O  0.72037139  0.83574912  0.31713464    -0.75000
O19         O  0.73054391  0.93160440  0.32034298    -0.74900
O20         O  0.73215805  0.95821062  0.28790674    -0.74900
O21         O  0.69884043  0.96952323  0.30465280    -0.74800
O22         O  0.76411709  0.92518783  0.30357340    -0.74900
Ni23       Ni  0.72051718  0.84659992  0.30133075     1.25400
Ni24       Ni  0.73174633  0.94958166  0.30423116     1.25400
C25         C  0.77037038  0.87040227  0.30189676     0.87400
C26         C  0.68238655  0.92993720  0.30369374     0.87300
C27         C  0.72694072  0.91348441  0.28142965     0.87300
C28         C  0.72523028  0.87819231  0.32400780     0.87500
O29         O  0.99796059  0.59963801  0.18440293    -0.74800
O30         O  0.93559813  0.67581068  0.18209858    -0.74900
O31         O  0.96711047  0.62269278  0.16752994    -0.74900
O32         O  0.96586485  0.64905109  0.19902307    -0.75000
O33         O  0.98298012  0.73948639  0.19682963    -0.74900
O34         O  0.98541372  0.71099347  0.16452910    -0.74900
O35         O  0.95383794  0.76430977  0.17922385    -0.74800
O36         O  0.01473923  0.69056704  0.18214923    -0.74900
Ni37       Ni  0.96596296  0.63369955  0.18333868     1.25400
Ni38       Ni  0.98479938  0.72961953  0.18056424     1.25400
C39         C  0.01663600  0.63378579  0.18391245     0.87400
C40         C  0.93463610  0.73320493  0.18025378     0.87300
C41         C  0.97670148  0.66104008  0.16078563     0.87300
C42         C  0.97451420  0.69727470  0.20324780     0.87500
O43         O  0.96418591  0.81606784  0.30567569    -0.74800
O44         O  0.02746528  0.74561312  0.30783301    -0.74900
O45         O  0.99583151  0.76253326  0.29128683    -0.74900
O46         O  0.99635919  0.80304323  0.32233347    -0.75000
O47         O  0.98051864  0.71367428  0.32697025    -0.74900
O48         O  0.97864264  0.67361950  0.29517869    -0.74900
O49         O  0.01046894  0.65683079  0.31194898    -0.74800
O50         O  0.94868014  0.72630097  0.31041225    -0.74900
Ni51       Ni  0.99659002  0.78498709  0.30666447     1.25400
Ni52       Ni  0.97907567  0.68934461  0.31128785     1.25400
C53         C  0.94600655  0.78189263  0.30781696     0.87400
C54         C  0.02916822  0.68866510  0.30997413     0.87300
C55         C  0.98703043  0.71236214  0.28801889     0.87300
C56         C  0.98809508  0.76648661  0.32979389     0.87500
O57         O  0.47686290  0.20021962  0.19953466    -0.74800
O58         O  0.48241632  0.17283213  0.16726461    -0.74900
O59         O  0.44992552  0.22745646  0.18131994    -0.74900
O60         O  0.50964904  0.15040043  0.18544709    -0.75000
O61         O  0.49190377  0.06014794  0.18691915    -0.74900
O62         O  0.43040436  0.14037740  0.18373991    -0.74900
O63         O  0.46275367  0.08593865  0.16968705    -0.74800
O64         O  0.45901589  0.11040752  0.20125881    -1.00500
Ni65       Ni  0.48027942  0.19097257  0.18331226     1.25400
Ni66       Ni  0.46028202  0.09614640  0.18549193     1.25400
C67         C  0.46757386  0.15812622  0.20572668     0.87400
C68         C  0.47373035  0.12345314  0.16324779     0.87300
C69         C  0.43030297  0.19785590  0.18187014     0.87300
C70         C  0.51090937  0.09319517  0.18669049     0.87500
O71         O  0.46142648  0.27490773  0.30744353    -0.74800
O72         O  0.52373834  0.20083512  0.31074003    -0.74900
O73         O  0.49317743  0.21847288  0.29358809    -0.74900
O74         O  0.49244680  0.26077265  0.32456520    -0.75000
O75         O  0.47583867  0.17227418  0.32919646    -0.74900
O76         O  0.47449720  0.13149632  0.29746960    -0.74900
O77         O  0.50563467  0.11307079  0.31453927    -0.74800
O78         O  0.44479688  0.18667438  0.31229361    -0.74900
Ni79       Ni  0.49338574  0.24186690  0.30895767     1.25400
Ni80       Ni  0.47466649  0.14766527  0.31353933     1.25400
C81         C  0.44278869  0.24202264  0.30939734     0.87400
C82         C  0.52475320  0.14388500  0.31296763     0.87300
C83         C  0.48337215  0.16949214  0.29030649     0.87300
C84         C  0.48385568  0.22463338  0.33201471     0.87500
O85         O  0.20790587  0.55158258  0.18186825    -0.74800
O86         O  0.27305056  0.49100966  0.17823632    -0.74900
O87         O  0.23966761  0.53994607  0.16442926    -0.74900
O88         O  0.24175071  0.50785111  0.19562772    -0.75000
O89         O  0.22802520  0.41421259  0.19314361    -0.74900
O90         O  0.22504275  0.44818136  0.16095052    -0.74900
O91         O  0.25788656  0.39954986  0.17495921    -0.74800
O92         O  0.19461627  0.45776848  0.17907645    -0.74900
Ni93       Ni  0.24113620  0.52584519  0.18010964     1.25400
Ni94       Ni  0.22592642  0.42658856  0.17690147     1.25400
C95         C  0.19053236  0.51332218  0.18130724     0.87400
C96         C  0.27594459  0.43427925  0.17606707     0.87300
C97         C  0.23183974  0.50091859  0.15748986     0.87300
C98         C  0.23500289  0.45709219  0.19968471     0.87500
O99         O  0.25349616  0.34001687  0.30368559    -0.74800
O100        O  0.18931483  0.40752415  0.30546628    -0.74900
O101        O  0.22200607  0.38590224  0.28887345    -0.74900
O102        O  0.22018890  0.35715023  0.32027805    -0.75000
O103        O  0.23568849  0.44801739  0.32371863    -0.74900
O104        O  0.23769435  0.47753967  0.29140655    -0.74900
O105        O  0.20564752  0.49794791  0.30845845    -0.74800
O106        O  0.26795286  0.43244871  0.30672639    -0.74900
Ni107      Ni  0.22067153  0.36940116  0.30449249     1.25400
Ni108      Ni  0.23722270  0.46728865  0.30769970     1.25400
C109        C  0.27135114  0.37631723  0.30483439     0.87400
C110        C  0.18717591  0.46488540  0.30714112     0.87300
C111        C  0.23022312  0.43539409  0.28484145     0.87300
C112        C  0.22786910  0.39633462  0.32723500     0.87500
O113        O  0.25214829  0.83249878  0.80210291    -0.74800
O114        O  0.18607506  0.88454878  0.80491314    -0.74900
O115        O  0.21843247  0.87276298  0.78778874    -0.74900
O116        O  0.21952087  0.84093446  0.81915891    -0.75000
O117        O  0.23136711  0.93528024  0.82265294    -0.74900
O118        O  0.23125509  0.96706657  0.79057439    -0.74900
O119        O  0.19912089  0.97880283  0.80768469    -0.74800
O120        O  0.26356048  0.92746693  0.80540437    -0.74900
Ni121      Ni  0.21857280  0.85429167  0.80340178     1.25400
Ni122      Ni  0.23170046  0.95550509  0.80672815     1.25400
C123        C  0.26871985  0.87243903  0.80320324     0.87400
C124        C  0.18200887  0.94125111  0.80645223     0.87300
C125        C  0.22486789  0.92432859  0.78391470     0.87300
C126        C  0.22584816  0.88174740  0.82611667     0.87500
O127        O  0.22349789  0.92862906  0.69219413    -0.74800
O128        O  0.22185603  0.96990314  0.66038040    -0.74900
O129        O  0.25453824  0.92060690  0.67437075    -0.74900
O130        O  0.19045366  0.97326234  0.67808630    -0.75000
O131        O  0.20235953  0.06719155  0.68191306    -0.74900
O132        O  0.26824824  0.01255144  0.67848480    -0.74900
O133        O  0.23481512  0.06227076  0.66474097    -0.74800
O134        O  0.23600437  0.02248830  0.69564830    -0.74900
Ni135      Ni  0.22217477  0.94476722  0.67609284     1.25400
Ni136      Ni  0.23587939  0.04440286  0.68029898     1.25400
C137        C  0.22962322  0.97029480  0.69916623     0.87400
C138        C  0.22780257  0.02409951  0.65745142     0.87300
C139        C  0.27202634  0.95655153  0.67598428     0.87300
C140        C  0.18554984  0.02786767  0.68074525     0.87500
O141        O  0.46157489  0.82016536  0.80636683    -0.74800
O142        O  0.52642598  0.76028980  0.80800036    -0.74900
O143        O  0.49416355  0.77441630  0.79156822    -0.74900
O144        O  0.49433336  0.80932702  0.82290993    -0.75000
O145        O  0.48219032  0.71557839  0.82696856    -0.74900
O146        O  0.47816199  0.68352776  0.79495842    -0.74900
O147        O  0.51168677  0.66738317  0.81077429    -0.74800
O148        O  0.44837855  0.72810646  0.81110538    -0.74900
Ni149      Ni  0.49464393  0.79442231  0.80711719     1.25400
Ni150      Ni  0.47964459  0.69532451  0.81112023     1.25400
C151        C  0.44430460  0.78312050  0.80848439     0.87400
C152        C  0.52941533  0.70299493  0.80918625     0.87300
C153        C  0.48586972  0.72417722  0.78801998     0.87300
C154        C  0.48840844  0.76892174  0.83015587     0.87500
O155        O  0.49640798  0.61467443  0.68488816    -0.74800
O156        O  0.43348960  0.68636033  0.68177783    -0.74900
O157        O  0.46643030  0.63460813  0.66766743    -0.74900
O158        O  0.46322428  0.66251863  0.69910154    -0.75000
O159        O  0.47955401  0.75390604  0.69694027    -0.74900
O160        O  0.48406497  0.72385234  0.66475331    -0.74900
O161        O  0.45100600  0.77582800  0.67896712    -0.74800
O162        O  0.51237673  0.70661027  0.68270466    -0.74900
Ni163      Ni  0.46420293  0.64643643  0.68343632     1.25400
Ni164      Ni  0.48222379  0.74342015  0.68072290     1.25400
C165        C  0.51472845  0.64999632  0.68447775     0.87400
C166        C  0.43206516  0.74360882  0.67986235     0.87300
C167        C  0.47640837  0.67279395  0.66101368     0.87300
C168        C  0.47146249  0.71118727  0.70334002     0.87500
O169        O  0.70583491  0.58056847  0.68102662    -0.74800
O170        O  0.77160954  0.52649136  0.67764533    -0.74900
O171        O  0.73787746  0.57209364  0.66367924    -0.74900
O172        O  0.73974352  0.53917276  0.69498464    -0.75000
O173        O  0.72769688  0.44427967  0.69219894    -0.74900
O174        O  0.72446000  0.47921048  0.66013332    -0.74900
O175        O  0.75796778  0.43375059  0.67406519    -0.74800
O176        O  0.69387415  0.48560330  0.67817408    -0.74900
Ni177      Ni  0.73926717  0.55789781  0.67941752     1.25400
Ni178      Ni  0.72559005  0.45733895  0.67601389     1.25400
C179        C  0.68906007  0.54082131  0.68038375     0.87400
C180        C  0.77539181  0.47040615  0.67528059     0.87300
C181        C  0.73065249  0.53239397  0.65669866     0.87300
C182        C  0.73373564  0.48738837  0.69888463     0.87500
O183        O  0.75178236  0.35380635  0.80271739    -0.74800
O184        O  0.68870240  0.42596433  0.80505111    -0.74900
O185        O  0.72037522  0.40229220  0.78808422    -0.74900
O186        O  0.71935827  0.37425104  0.81966791    -0.75000
O187        O  0.73683035  0.46337592  0.82276330    -0.74900
O188        O  0.73668545  0.49329509  0.79054998    -0.74900
O189        O  0.70605450  0.51521641  0.80805545    -0.74800
O190        O  0.76749193  0.44542178  0.80526505    -0.74900
Ni191      Ni  0.71945055  0.38580728  0.80380032     1.25400
Ni192      Ni  0.73729095  0.48255780  0.80677561     1.25400
C193        C  0.77008602  0.38891643  0.80345932     0.87400
C194        C  0.68722800  0.48326764  0.80684750     0.87300
C195        C  0.72869496  0.45171436  0.78401463     0.87300
C196        C  0.72802124  0.41312586  0.82643611     0.87500
O197        O  0.99225733  0.10398691  0.68515636    -0.74800
O198        O  0.93110820  0.18390497  0.68106774    -0.74900
O199        O  0.96419657  0.12869634  0.66748682    -0.74900
O200        O  0.95865515  0.15476512  0.69885540    -0.75000
O201        O  0.97698698  0.24403430  0.69734212    -0.74900
O202        O  0.98355611  0.21603253  0.66505261    -0.74900
O203        O  0.95062461  0.27120663  0.67891478    -0.74800
O204        O  0.01009160  0.19403783  0.68350292    -0.74900
Ni205      Ni  0.96080987  0.13983480  0.68319832     1.25400
Ni206      Ni  0.98088074  0.23464073  0.68110157     1.25400
C207        C  0.01123782  0.13707978  0.68512509     0.87400
C208        C  0.93102208  0.24151485  0.67938677     0.87300
C209        C  0.97542057  0.16588707  0.66109069     0.87300
C210        C  0.96731812  0.20198654  0.70342945     0.87500
O211        O  0.95991678  0.29140514  0.80596971    -0.74800
O212        O  0.02284543  0.21875736  0.80823526    -0.74900
O213        O  0.99151253  0.23917343  0.79155432    -0.74900
O214        O  0.99186572  0.27571533  0.82268856    -0.75000
O215        O  0.97587387  0.18609182  0.82699895    -0.74900
O216        O  0.97307039  0.15129923  0.79493329    -0.74900
O217        O  0.00507500  0.13007340  0.81156510    -0.74800
O218        O  0.94387344  0.20203058  0.81054161    -0.74900
Ni219      Ni  0.99219328  0.25941676  0.80700814     1.25400
Ni220      Ni  0.97398099  0.16406069  0.81116197     1.25400
C221        C  0.94151423  0.25756576  0.80789838     0.87400
C222        C  0.02407138  0.16138077  0.81005487     0.87300
C223        C  0.98167623  0.19093281  0.78799061     0.87300
C224        C  0.98375103  0.23834772  0.83002549     0.87500
O225        O  0.72399017  0.60756617  0.55104110    -0.74800
O226        O  0.78607092  0.68347104  0.55440670    -0.74900
O227        O  0.75349060  0.62843457  0.56842353    -0.74900
O228        O  0.75703057  0.65838648  0.53701038    -0.75000
O229        O  0.73987280  0.74873760  0.53920931    -0.74900
O230        O  0.73494167  0.71641954  0.57135224    -0.74900
O231        O  0.76753092  0.77152941  0.55728757    -0.74800
O232        O  0.70711657  0.69846214  0.55321949    -0.74900
Ni233      Ni  0.75584775  0.64135086  0.55264856     1.25400
Ni234      Ni  0.73681911  0.73703697  0.55539904     1.25400
C235        C  0.70534830  0.64179753  0.55140462     0.87400
C236        C  0.78681044  0.74088276  0.55624310     0.87300
C237        C  0.74302726  0.66570384  0.57508736     0.87300
C238        C  0.74884429  0.70722066  0.53280082     0.87500
O239        O  0.75110027  0.81133418  0.42934368    -0.74800
O240        O  0.68977038  0.72933053  0.42858802    -0.74900
O241        O  0.72178547  0.75734578  0.44458217    -0.74900
O242        O  0.71841896  0.78763208  0.41322695    -0.75000
O243        O  0.73587598  0.69933229  0.40926760    -0.74900
O244        O  0.74191041  0.67168393  0.44141176    -0.74900
O245        O  0.70920794  0.64258032  0.42559716    -0.74800
O246        O  0.76873285  0.72359798  0.42499033    -0.74900
Ni247      Ni  0.71953852  0.77451064  0.42902028     1.25400
Ni248      Ni  0.73949547  0.68107410  0.42517383     1.25400
C249        C  0.77006638  0.77978220  0.42731755     0.87400
C250        C  0.68968540  0.67149253  0.42725715     0.87300
C251        C  0.73291541  0.71116223  0.44825769     0.87300
C252        C  0.72675398  0.74984318  0.40602300     0.87500
O253        O  0.95996438  0.85567096  0.43466977    -0.74800
O254        O  0.02539476  0.91350734  0.43218871    -0.74900
O255        O  0.99328464  0.89612521  0.44913459    -0.74900
O256        O  0.99265124  0.86882968  0.41775819    -0.75000
O257        O  0.97904205  0.96186516  0.41454674    -0.74900
O258        O  0.97982679  0.99026024  0.44693146    -0.74900
O259        O  0.01109977  0.00656130  0.42953166    -0.74800
O260        O  0.94736781  0.95027125  0.43203437    -0.74900
Ni261      Ni  0.99329384  0.88023711  0.43350972     1.25400
Ni262      Ni  0.97887693  0.98063091  0.43063389     1.25400
C263        C  0.94288369  0.89447538  0.43383953     0.87400
C264        C  0.02875927  0.97062233  0.43072577     0.87300
C265        C  0.98689518  0.94684968  0.45332838     0.87300
C266        C  0.98566862  0.90938013  0.41090317     0.87500
O267        O  0.01540843  0.06883456  0.55640079    -0.74800
O268        O  0.94910509  0.01632469  0.55817142    -0.74900
O269        O  0.98106557  0.06290083  0.57286084    -0.74900
O270        O  0.98317823  0.02700828  0.54176723    -0.75000
O271        O  0.99458716  0.93211537  0.54513721    -0.74900
O272        O  0.99374198  0.97024559  0.57714050    -0.74900
O273        O  0.96202371  0.92373620  0.56238920    -0.74800
O274        O  0.02654198  0.97404976  0.56002541    -0.74900
Ni275      Ni  0.98171533  0.04707864  0.55719704     1.25400
Ni276      Ni  0.99459442  0.94664689  0.56133216     1.25400
C277        C  0.03190087  0.02876961  0.55766366     0.87400
C278        C  0.94487967  0.96043153  0.56057085     0.87300
C279        C  0.98725492  0.02387107  0.58018271     0.87300
C280        C  0.98957197  0.97496677  0.53819371     0.87500
O281        O  0.25657389  0.29957701  0.43227599    -0.74800
O282        O  0.19240536  0.23439732  0.43031207    -0.74900
O283        O  0.22462591  0.24844241  0.44679184    -0.74900
O284        O  0.22379711  0.28958541  0.41581003    -0.75000
O285        O  0.23784612  0.19861353  0.41103317    -0.74900
O286        O  0.24128098  0.15900148  0.44285866    -0.74900
O287        O  0.20835458  0.14391013  0.42657651    -0.74800
O288        O  0.27084458  0.20914254  0.42722118    -0.74900
Ni289      Ni  0.22377295  0.27123078  0.43142256     1.25400
Ni290      Ni  0.24004734  0.17437904  0.42673993     1.25400
C291        C  0.27430141  0.26410681  0.43002248     0.87400
C292        C  0.19008767  0.17732568  0.42847090     0.87300
C293        C  0.23338073  0.19816154  0.45004639     0.87300
C294        C  0.23082471  0.25207699  0.40827027     0.87500
O295        O  0.22505024  0.10247075  0.55425730    -0.74800
O296        O  0.28708126  0.17930581  0.55637068    -0.74900
O297        O  0.25506308  0.13039369  0.57115874    -0.74900
O298        O  0.25752242  0.14820563  0.53937447    -0.75000
O299        O  0.24063613  0.23937567  0.54065716    -0.74900
O300        O  0.23608230  0.21865304  0.57306429    -0.74900
O301        O  0.26864425  0.26815761  0.55844404    -0.74800
O302        O  0.20803856  0.19379708  0.55524682    -0.74900
Ni303      Ni  0.25686237  0.13694793  0.55523968     1.25400
Ni304      Ni  0.23780225  0.23331324  0.55692804     1.25400
C305        C  0.20638066  0.13652062  0.55417081     0.87400
C306        C  0.28787690  0.23692438  0.55787599     0.87300
C307        C  0.24485131  0.17019859  0.57738654     0.87300
C308        C  0.24914777  0.19554425  0.53467255     0.87500
O309        O  0.51414343  0.57224682  0.55588400    -0.74800
O310        O  0.44878699  0.51476250  0.55969200    -0.74900
O311        O  0.48210921  0.56599564  0.57329144    -0.74900
O312        O  0.48060095  0.52558972  0.54236798    -0.75000
O313        O  0.49391677  0.43249144  0.54588375    -0.74900
O314        O  0.49597407  0.47442033  0.57758459    -0.74900
O315        O  0.46331948  0.42362597  0.56380255    -0.74800
O316        O  0.52680218  0.47893929  0.55973458    -0.74900
Ni317      Ni  0.48085669  0.54796072  0.55771295     1.25400
Ni318      Ni  0.49542022  0.44910046  0.56192538     1.25400
C319        C  0.53121907  0.53358222  0.55692637     0.87400
C320        C  0.44552589  0.45857584  0.56219461     0.87300
C321        C  0.48962838  0.52819774  0.58055905     0.87300
C322        C  0.48741847  0.47365893  0.53888837     0.87500
O323        O  0.46560854  0.32674484  0.43680178    -0.74800
O324        O  0.53163813  0.37950214  0.43370658    -0.74900
O325        O  0.49942385  0.36987339  0.45084137    -0.74900
O326        O  0.49815879  0.33255781  0.41970016    -0.75000
O327        O  0.48577750  0.42583044  0.41566400    -0.74900
O328        O  0.48647601  0.46356768  0.44750103    -0.74900
O329        O  0.51824000  0.47275544  0.43024257    -0.74800
O330        O  0.45405403  0.42100648  0.43299222    -0.74900
Ni331      Ni  0.49919501  0.34877540  0.43536689     1.25400
Ni332      Ni  0.48577781  0.44910143  0.43142985     1.25400
C333        C  0.44895437  0.36621389  0.43539889     0.87400
C334        C  0.53547372  0.43610671  0.43188690     0.87300
C335        C  0.49310839  0.42211659  0.45439439     0.87300
C336        C  0.49122951  0.37169395  0.41253572     0.87500
O337        O  0.25206442  0.80099118  0.93108748    -0.74800
O338        O  0.18797571  0.73316306  0.93008238    -0.74900
O339        O  0.22072870  0.75178653  0.94612932    -0.74900
O340        O  0.21874472  0.78666730  0.91491056    -0.75000
O341        O  0.23391127  0.69601971  0.91070278    -0.74900
O342        O  0.23715239  0.66154444  0.94264646    -0.74900
O343        O  0.20444818  0.64319715  0.92647388    -0.74800
O344        O  0.26663494  0.70973484  0.92684798    -0.74900
Ni345      Ni  0.21927563  0.77144642  0.93064404     1.25400
Ni346      Ni  0.23598578  0.67437846  0.92649659     1.25400
C347        C  0.26994562  0.76535121  0.92919627     0.87400
C348        C  0.18600398  0.67569955  0.92854662     0.87300
C349        C  0.22946095  0.70197648  0.94962337     0.87300
C350        C  0.22637866  0.74845391  0.90762195     0.87500
O351        O  0.22032010  0.58844310  0.05256335    -0.74800
O352        O  0.28385064  0.65686710  0.05521022    -0.74900
O353        O  0.25135671  0.60505144  0.06948358    -0.74900
O354        O  0.25320296  0.63611158  0.03814843    -0.75000
O355        O  0.23780144  0.72821306  0.04069306    -0.74900
O356        O  0.23434933  0.69457939  0.07284756    -0.74900
O357        O  0.26707941  0.74674662  0.05851561    -0.74800
O358        O  0.20503858  0.68094166  0.05503865    -0.74900
Ni359      Ni  0.25281483  0.61849777  0.05374663     1.25400
Ni360      Ni  0.23559079  0.71600306  0.05690647     1.25400
C361        C  0.20227100  0.62453987  0.05321800     0.87400
C362        C  0.28573829  0.71374695  0.05736690     0.87300
C363        C  0.24209676  0.64306228  0.07637252     0.87300
C364        C  0.24536421  0.68571622  0.03411415     0.87500
O365        O  0.75276946  0.28565178  0.92913480    -0.74800
O366        O  0.68990318  0.21270012  0.92676102    -0.74900
O367        O  0.72166676  0.22894098  0.94329870    -0.74900
O368        O  0.72008048  0.27355473  0.91250478    -0.75000
O369        O  0.73706289  0.18629443  0.90733456    -0.74900
O370        O  0.73949175  0.14145606  0.93894706    -0.74900
O371        O  0.70767020  0.12564752  0.92214688    -0.74800
O372        O  0.76883929  0.19728513  0.92397741    -0.74900
Ni373      Ni  0.72048296  0.25340812  0.92804879     1.25400
Ni374      Ni  0.73877687  0.15947665  0.92290632     1.25400
C375        C  0.77120075  0.25226068  0.92699392     0.87400
C376        C  0.68871497  0.15596143  0.92437872     0.87300
C377        C  0.73100330  0.17893078  0.94630542     0.87300
C378        C  0.72839768  0.23851115  0.90483283     0.87500
O379        O  0.73818755  0.21426862  0.03699879    -0.74800
O380        O  0.73577107  0.19014040  0.06936128    -0.74900
O381        O  0.76660941  0.24489322  0.05450809    -0.74900
O382        O  0.70726849  0.16370678  0.05183139    -0.75000
O383        O  0.72589692  0.07460618  0.05026549    -0.74900
O384        O  0.78658163  0.15842084  0.05212721    -0.74900
O385        O  0.75593619  0.10398131  0.06694475    -0.74800
O386        O  0.75693297  0.12564865  0.03526283    -0.74900
Ni387      Ni  0.73637152  0.20651442  0.05326317     1.25400
Ni388      Ni  0.75709591  0.11265100  0.05106800     1.25400
C389        C  0.74736812  0.17218046  0.03079937     0.87400
C390        C  0.74515723  0.14170455  0.07340935     0.87300
C391        C  0.78638437  0.21601861  0.05373312     0.87300
C392        C  0.70660884  0.10637813  0.05065011     0.87500
O393        O  0.46086434  0.82933942  0.93606375    -0.74800
O394        O  0.52749185  0.87710686  0.93335595    -0.74900
O395        O  0.49587785  0.86018048  0.95063556    -0.74900
O396        O  0.49274376  0.84220698  0.91890070    -0.75000
O397        O  0.48281009  0.93941465  0.91692249    -0.74900
O398        O  0.48398998  0.95621149  0.94947329    -0.74900
O399        O  0.51552799  0.97334852  0.93238540    -0.74800
O400        O  0.45056946  0.92616418  0.93407646    -0.74900
Ni401      Ni  0.49466192  0.84876147  0.93479656     1.25400
Ni402      Ni  0.48281842  0.95220006  0.93314792     1.25400
C403        C  0.44472940  0.87066916  0.93528696     0.87400
C404        C  0.53219977  0.93403012  0.93271110     0.87300
C405        C  0.49062513  0.91044768  0.95537953     0.87300
C406        C  0.48717239  0.88690285  0.91265379     0.87500
O407        O  0.51673433  0.02917648  0.05774418    -0.74800
O408        O  0.45106647  0.97351560  0.06048447    -0.74900
O409        O  0.48329526  0.02412924  0.07464955    -0.74900
O410        O  0.48397983  0.98251426  0.04368969    -0.75000
O411        O  0.49755216  0.88993630  0.04750931    -0.74900
O412        O  0.49594299  0.93197893  0.07930316    -0.74900
O413        O  0.46474550  0.88160386  0.06467225    -0.74800
O414        O  0.52887929  0.93630819  0.06223327    -0.74900
Ni415      Ni  0.48330782  0.00564960  0.05903180     1.25400
Ni416      Ni  0.49720668  0.90666348  0.06361260     1.25400
C417        C  0.53364753  0.99066418  0.05932490     0.87400
C418        C  0.44728285  0.91739484  0.06283352     0.87300
C419        C  0.48946966  0.98590980  0.08213614     0.87300
C420        C  0.49085912  0.93028197  0.04038986     0.87500
O421        O  0.96206587  0.32591720  0.93497459    -0.74800
O422        O  0.02681672  0.38977238  0.93271633    -0.74900
O423        O  0.99444760  0.37062170  0.94954443    -0.74900
O424        O  0.99498447  0.34062002  0.91811431    -0.75000
O425        O  0.98050932  0.43256127  0.91464812    -0.74900
O426        O  0.97918030  0.46269671  0.94689536    -0.74900
O427        O  0.01122010  0.48137945  0.92991141    -0.74800
O428        O  0.94842508  0.41901917  0.93176018    -0.74900
Ni429      Ni  0.99514905  0.35341363  0.93390600     1.25400
Ni430      Ni  0.97940443  0.45220153  0.93065252     1.25400
C431        C  0.94454710  0.36329156  0.93387509     0.87400
C432        C  0.02933097  0.44727228  0.93135936     0.87300
C433        C  0.98656597  0.42062583  0.95349907     0.87300
C434        C  0.98745292  0.38008543  0.91115578     0.87500
O435        O  0.01014380  0.55954484  0.05581025    -0.74800
O436        O  0.94444729  0.50357087  0.05878171    -0.74900
O437        O  0.97725117  0.55357985  0.07280057    -0.74900
O438        O  0.97700448  0.51403635  0.04183883    -0.75000
O439        O  0.98942746  0.42021513  0.04535215    -0.74900
O440        O  0.99078761  0.46182255  0.07717731    -0.74900
O441        O  0.95833022  0.41204977  0.06312151    -0.74800
O442        O  0.02222356  0.46565856  0.05955754    -0.74900
Ni443      Ni  0.97670355  0.53596869  0.05720265     1.25400
Ni444      Ni  0.99061727  0.43661575  0.06146789     1.25400
C445        C  0.02702488  0.52053477  0.05704773     0.87400
C446        C  0.94081206  0.44755122  0.06128993     0.87300
C447        C  0.98447237  0.51571760  0.08011992     0.87300
C448        C  0.98316762  0.46163806  0.03834134     0.87500
C449        C  0.97887123  0.49502262  0.00720906    -0.11200
C450        C  0.98254349  0.43822356  0.00222716     0.05900
C451        C  0.98648437  0.38781106  0.00928638    -0.10000
C452        C  0.98677890  0.39448186  0.02106848    -0.11600
C453        C  0.98303546  0.45162123  0.02597165    -0.01400
C454        C  0.97903450  0.50157347  0.01886065    -0.10500
C455        C  0.98308304  0.43297290  0.98970779     0.05900
H456        H  0.98918886  0.34320287  0.00571212     0.07900
H457        H  0.98983011  0.35516053  0.02630756     0.11300
H458        H  0.97628032  0.54653802  0.02227690     0.11600
H459        H  0.97638983  0.53505907  0.00208905     0.07900
C460        C  0.96781076  0.46851438  0.98303859    -0.11200
C461        C  0.96934128  0.46626704  0.97124937    -0.10500
C462        C  0.98590983  0.42774777  0.96589171    -0.01400
C463        C  0.00102875  0.39196935  0.97253705    -0.11600
C464        C  0.99971245  0.39473446  0.98428668    -0.10000
H465        H  0.95449854  0.49777349  0.98693270     0.07900
H466        H  0.95719576  0.49345388  0.96633988     0.11600
H467        H  0.01403546  0.36183880  0.96863236     0.11300
H468        H  0.01204469  0.36769006  0.98911351     0.07900
C469        C  0.50104040  0.86429572  0.98571366    -0.11200
C470        C  0.49441638  0.91659110  0.99169970     0.05900
C471        C  0.48764008  0.96841878  0.98555954    -0.10000
C472        C  0.48659116  0.96711325  0.97376759    -0.11600
C473        C  0.49245437  0.91406907  0.96783839    -0.01400
C474        C  0.50009351  0.86307316  0.97395862    -0.10500
C475        C  0.49326184  0.91617372  0.00427253     0.05900
H476        H  0.48296155  0.01003488  0.98987980     0.07900
H477        H  0.48095340  0.00735062  0.96931836     0.11300
H478        H  0.50496709  0.82145813  0.96967912     0.11600
H479        H  0.50616874  0.82348290  0.99011736     0.07900
C480        C  0.47472794  0.94733552  0.00991683    -0.11200
C481        C  0.47358803  0.94900875  0.02164214    -0.10500
C482        C  0.49075760  0.91903094  0.02811518    -0.01400
C483        C  0.50880436  0.88551541  0.02259372    -0.11600
C484        C  0.51011200  0.88429271  0.01074773    -0.10000
H485        H  0.46100069  0.97068887  0.00526911     0.07900
H486        H  0.45935338  0.97482989  0.02568846     0.11600
H487        H  0.52243533  0.86270417  0.02740013     0.11300
H488        H  0.52469050  0.85992235  0.00667755     0.07900
C489        C  0.59088497  0.07930571  0.05336126    -0.11200
C490        C  0.60824493  0.03298010  0.05375597     0.05900
C491        C  0.60074242  0.97358135  0.05599208    -0.10000
C492        C  0.57660206  0.96068996  0.05789438    -0.11600
C493        C  0.55918622  0.00676010  0.05754277    -0.01400
C494        C  0.56654635  0.06626891  0.05520457    -0.10500
C495        C  0.63412884  0.04639717  0.05203030     0.05900
H496        H  0.61352600  0.93672951  0.05615207     0.07900
H497        H  0.57160248  0.91409158  0.05953464     0.11300
H498        H  0.55356866  0.10263336  0.05485743     0.11600
H499        H  0.59614442  0.12578385  0.05179995     0.07900
C500        C  0.64160598  0.08964570  0.04403704    -0.11200
C501        C  0.66569247  0.10591117  0.04307430    -0.10500
C502        C  0.68283410  0.07858950  0.04993473    -0.01400
C503        C  0.67575946  0.03299612  0.05748612    -0.11600
C504        C  0.65154517  0.01721426  0.05857489    -0.10000
H505        H  0.62876871  0.11190633  0.03869699     0.07900
H506        H  0.67087557  0.14154983  0.03723868     0.11600
H507        H  0.68866404  0.01253399  0.06303868     0.11300
H508        H  0.64634952  0.98417946  0.06490620     0.07900
C509        C  0.89180957  0.33208343  0.06566034    -0.11200
C510        C  0.87325349  0.35593832  0.05920939     0.05900
C511        C  0.87609137  0.41399994  0.05442405    -0.10000
C512        C  0.89757341  0.44614831  0.05562553    -0.11600
C513        C  0.91652421  0.42068167  0.06162940    -0.01400
C514        C  0.91313151  0.36403090  0.06686581    -0.10500
C515        C  0.85115806  0.31988958  0.05747269     0.05900
H516        H  0.86205957  0.43353168  0.04939280     0.07900
H517        H  0.89976074  0.48938605  0.05142036     0.11300
H518        H  0.92731552  0.34334601  0.07164953     0.11600
H519        H  0.88993759  0.28828106  0.06969321     0.07900
C520        C  0.85238341  0.25715542  0.05535963    -0.11200
C521        C  0.83145696  0.22300960  0.05404005    -0.10500
C522        C  0.80891015  0.25097430  0.05482414    -0.01400
C523        C  0.80780290  0.31379777  0.05682743    -0.11600
C524        C  0.82863608  0.34776747  0.05812225    -0.10000
H525        H  0.86955733  0.23454388  0.05466610     0.07900
H526        H  0.83292617  0.17486177  0.05245641     0.11600
H527        H  0.79074545  0.33696992  0.05750588     0.11300
H528        H  0.82708451  0.39574350  0.05986714     0.07900
C529        C  0.83833573  0.25747534  0.92429381    -0.11200
C530        C  0.84443387  0.30057728  0.93241249     0.05900
C531        C  0.82592451  0.33196871  0.93817766    -0.10000
C532        C  0.80182086  0.31910576  0.93604707    -0.11600
C533        C  0.79593536  0.27446718  0.92817334    -0.01400
C534        C  0.81444181  0.24456046  0.92221866    -0.10500
C535        C  0.87005824  0.31462289  0.93429766     0.05900
H536        H  0.83007030  0.36546938  0.94450695     0.07900
H537        H  0.78789532  0.34213985  0.94085236     0.11300
H538        H  0.81043447  0.21015433  0.91602639     0.11600
H539        H  0.85205671  0.23390179  0.91945211     0.07900
C540        C  0.88771872  0.26887547  0.93389172    -0.11200
C541        C  0.91212981  0.28367019  0.93420842    -0.10500
C542        C  0.91919286  0.34441962  0.93492757    -0.01400
C543        C  0.90144374  0.38951538  0.93597337    -0.11600
C544        C  0.87724579  0.37485908  0.93563314    -0.10000
H545        H  0.88266640  0.22177558  0.93307546     0.07900
H546        H  0.92538657  0.24802623  0.93348308     0.11600
H547        H  0.90622992  0.43685666  0.93670652     0.11300
H548        H  0.86422673  0.41119577  0.93587709     0.07900
C549        C  0.64448467  0.02626584  0.92499321    -0.11200
C550        C  0.62267368  0.05583334  0.92717830     0.05900
C551        C  0.62248280  0.11966247  0.92771462    -0.10000
C552        C  0.64376464  0.15284535  0.92653499    -0.11600
C553        C  0.66561746  0.12291148  0.92464350    -0.01400
C554        C  0.66562393  0.05933523  0.92368890    -0.10500
C555        C  0.60038727  0.02022286  0.92924212     0.05900
H556        H  0.60588398  0.14407513  0.92911961     0.07900
H557        H  0.64315257  0.20169576  0.92725400     0.11300
H558        H  0.68215675  0.03460491  0.92227999     0.11600
H559        H  0.64541775  0.97734326  0.92465776     0.07900
C560        C  0.59587035  0.96607196  0.92332569    -0.11200
C561        C  0.57426496  0.93462987  0.92499714    -0.10500
C562        C  0.55683530  0.95735807  0.93249372    -0.01400
C563        C  0.56174976  0.00971311  0.93873683    -0.11600
C564        C  0.58331987  0.04048376  0.93720794    -0.10000
H565        H  0.60857393  0.94928216  0.91708134     0.07900
H566        H  0.57061907  0.89483167  0.91998034     0.11600
H567        H  0.54850551  0.02784869  0.94460916     0.11300
H568        H  0.58645981  0.08069387  0.94218288     0.07900
C569        C  0.71717359  0.19172957  0.97737152    -0.11200
C570        C  0.73805324  0.16837158  0.98216935     0.05900
C571        C  0.75559054  0.14211092  0.97498483    -0.10000
C572        C  0.75265176  0.14131581  0.96327080    -0.11600
C573        C  0.73228427  0.16743341  0.95853416    -0.01400
C574        C  0.71441559  0.19161927  0.96570975    -0.10500
C575        C  0.74141679  0.17151738  0.99459505     0.05900
H576        H  0.77201680  0.12417687  0.97836344     0.07900
H577        H  0.76686460  0.12345865  0.95790272     0.11300
H578        H  0.69848557  0.21198154  0.96225246     0.11600
H579        H  0.70299990  0.21070846  0.98261774     0.07900
C580        C  0.73300291  0.22141848  0.00094597    -0.11200
C581        C  0.73535506  0.22283827  0.01269152    -0.10500
C582        C  0.74634241  0.17461627  0.01831922    -0.01400
C583        C  0.75523317  0.12557643  0.01192291    -0.11600
C584        C  0.75272657  0.12394505  0.00025444    -0.10000
H585        H  0.72458156  0.25947103  0.99684461     0.07900
H586        H  0.72831777  0.26120644  0.01736239     0.11600
H587        H  0.76369163  0.08734445  0.01595812     0.11300
H588        H  0.75909574  0.08443969  0.99571585     0.07900
C589        C  0.13686830  0.62466536  0.04630629    -0.11200
C590        C  0.12820878  0.57585001  0.05277467     0.05900
C591        C  0.14473845  0.53950844  0.05858159    -0.10000
C592        C  0.16926083  0.55260502  0.05812596    -0.11600
C593        C  0.17758515  0.60283712  0.05203012    -0.01400
C594        C  0.16127227  0.63828827  0.04602243    -0.10500
C595        C  0.10208239  0.56295505  0.05352346     0.05900
H596        H  0.13866737  0.50212227  0.06379972     0.07900
H597        H  0.18150843  0.52560410  0.06301730     0.11300
H598        H  0.16740992  0.67746427  0.04128384     0.11600
H599        H  0.12477639  0.65272068  0.04154224     0.07900
C600        C  0.08498602  0.61003155  0.05388632    -0.11200
C601        C  0.06043087  0.59699079  0.05485115    -0.10500
C602        C  0.05261634  0.53671080  0.05555860    -0.01400
C603        C  0.06974340  0.48997257  0.05503440    -0.11600
C604        C  0.09405926  0.50288200  0.05398612    -0.10000
H605        H  0.09059003  0.65694392  0.05366546     0.07900
H606        H  0.04766630  0.63387878  0.05525016     0.11600
H607        H  0.06439349  0.44286697  0.05540882     0.11300
H608        H  0.10658092  0.46551796  0.05345155     0.07900
C609        C  0.33263963  0.83442664  0.06234407    -0.11200
C610        C  0.35413520  0.80266810  0.06059666     0.05900
C611        C  0.35303717  0.74062424  0.05785579    -0.10000
C612        C  0.33092239  0.71119584  0.05685215    -0.11600
C613        C  0.30945233  0.74323686  0.05855486    -0.01400
C614        C  0.31062731  0.80516877  0.06133437    -0.10500
C615        C  0.37757241  0.83410759  0.06169365     0.05900
H616        H  0.36929327  0.71497369  0.05631812     0.07900
H617        H  0.33064026  0.66361022  0.05466703     0.11300
H618        H  0.29446246  0.83137104  0.06276171     0.11600
H619        H  0.33280850  0.88186452  0.06464209     0.07900
C620        C  0.38093701  0.89371426  0.05770134    -0.11200
C621        C  0.40332220  0.92216816  0.05842483    -0.10500
C622        C  0.42277358  0.89148730  0.06312673    -0.01400
C623        C  0.41914681  0.83265900  0.06740802    -0.11600
C624        C  0.39687068  0.80442875  0.06671438    -0.10000
H625        H  0.36645714  0.91773486  0.05371302     0.07900
H626        H  0.40559189  0.96727811  0.05498394     0.11600
H627        H  0.43369110  0.80780123  0.07117509     0.11300
H628        H  0.39477760  0.75917157  0.07011066     0.07900
C629        C  0.38615338  0.78354278  0.93698682    -0.11200
C630        C  0.36946662  0.82932278  0.93448598     0.05900
C631        C  0.37769807  0.88855774  0.93275976    -0.10000
C632        C  0.40206630  0.90163032  0.93326108    -0.11600
C633        C  0.41888196  0.85574850  0.93547281    -0.01400
C634        C  0.41066187  0.79661293  0.93744812    -0.10500
C635        C  0.34377081  0.81483780  0.93301818     0.05900
H636        H  0.36538115  0.92454934  0.93065239     0.07900
H637        H  0.40774497  0.94775976  0.93164937     0.11300
H638        H  0.42314293  0.76045609  0.93922871     0.11600
H639        H  0.38025449  0.73750319  0.93850433     0.07900
C640        C  0.33737572  0.76203925  0.92727968    -0.11200
C641        C  0.31339918  0.74779871  0.92574514    -0.10500
C642        C  0.29507219  0.78590417  0.92991543    -0.01400
C643        C  0.30133684  0.83967208  0.93541659    -0.11600
C644        C  0.32553601  0.85404449  0.93695800    -0.10000
H645        H  0.35095077  0.73179715  0.92387652     0.07900
H646        H  0.30924495  0.70620182  0.92136134     0.11600
H647        H  0.28761192  0.86957205  0.93878555     0.11300
H648        H  0.32997915  0.89512485  0.94143434     0.07900
C649        C  0.14119994  0.54895578  0.93238145    -0.11200
C650        C  0.11917886  0.57828601  0.93099569     0.05900
C651        C  0.11915780  0.64148191  0.92913232    -0.10000
C652        C  0.14072447  0.67414127  0.92849028    -0.11600
C653        C  0.16268230  0.64399745  0.92953508    -0.01400
C654        C  0.16259164  0.58122680  0.93159824    -0.10500
C655        C  0.09646761  0.54276568  0.93147286     0.05900
H656        H  0.10251534  0.66559546  0.92792961     0.07900
H657        H  0.14025540  0.72243763  0.92693857     0.11300
H658        H  0.17919458  0.55670456  0.93269994     0.11600
H659        H  0.14196767  0.50092979  0.93415857     0.07900
C660        C  0.09538332  0.48316049  0.92718806    -0.11200
C661        C  0.07383162  0.45044447  0.92747274    -0.10500
C662        C  0.05292846  0.47723561  0.93185402    -0.01400
C663        C  0.05412310  0.53607772  0.93632999    -0.11600
C664        C  0.07560553  0.56824977  0.93622055    -0.10000
H665        H  0.11104071  0.46224899  0.92334146     0.07900
H666        H  0.07330684  0.40534376  0.92391504     0.11600
H667        H  0.03827810  0.55747298  0.93992578     0.11300
H668        H  0.07583141  0.61311992  0.93987737     0.07900
C669        C  0.25239157  0.65949212  0.97837994    -0.11200
C670        C  0.23698630  0.69335251  0.98551331     0.05900
C671        C  0.21816504  0.72593725  0.98071188    -0.10000
C672        C  0.21523906  0.72625465  0.96906689    -0.11600
C673        C  0.23094995  0.69369446  0.96192915    -0.01400
C674        C  0.24931539  0.65940858  0.96668874    -0.10500
C675        C  0.24010014  0.69347589  0.99793371     0.05900
H676        H  0.20563297  0.75116445  0.98595876     0.07900
H677        H  0.20080215  0.75283741  0.96561247     0.11300
H678        H  0.26185432  0.63467368  0.96135875     0.11600
H679        H  0.26720656  0.63425175  0.98180762     0.07900
C680        C  0.24650342  0.63991350  0.00343827    -0.11200
C681        C  0.24869268  0.63861311  0.01509869    -0.10500
C682        C  0.24436616  0.69073126  0.02166352    -0.01400
C683        C  0.23811464  0.74472861  0.01620442    -0.11600
C684        C  0.23608809  0.74613963  0.00442721    -0.10000
H685        H  0.24923986  0.59832799  0.99876263     0.07900
H686        H  0.25326988  0.59587820  0.01898826     0.11600
H687        H  0.23466533  0.78554312  0.02101571     0.11300
H688        H  0.23138775  0.78841060  0.00040361     0.07900
C689        C  0.49117421  0.39945801  0.50999610    -0.11200
C690        C  0.49002948  0.45051630  0.50286065     0.05900
C691        C  0.48813132  0.50810245  0.50774582    -0.10000
C692        C  0.48711267  0.51467983  0.51939689    -0.11600
C693        C  0.48825699  0.46395655  0.52655503    -0.01400
C694        C  0.49044150  0.40616325  0.52175604    -0.10500
C695        C  0.49112678  0.44443517  0.49037880     0.05900
H696        H  0.48783580  0.54848465  0.50257195     0.07900
H697        H  0.48578704  0.56008006  0.52279584     0.11300
H698        H  0.49133040  0.36633999  0.52706244     0.11600
H699        H  0.49236816  0.35428127  0.50650160     0.07900
C700        C  0.50581526  0.40036307  0.48528566    -0.11200
C701        C  0.50679919  0.39443856  0.47358763    -0.10500
C702        C  0.49331052  0.43279925  0.46667276    -0.01400
C703        C  0.47907302  0.47792311  0.47168823    -0.11600
C704        C  0.47784401  0.48339805  0.48343272    -0.10000
H705        H  0.51671749  0.37062408  0.49032747     0.07900
H706        H  0.51812283  0.35948365  0.46994524     0.11600
H707        H  0.46832406  0.50764460  0.46656397     0.11300
H708        H  0.46607603  0.51737982  0.48706845     0.07900
C709        C  0.37915448  0.42937193  0.55806212    -0.11200
C710        C  0.37719725  0.36860052  0.56163012     0.05900
C711        C  0.39729187  0.34033910  0.56619586    -0.10000
C712        C  0.41901100  0.37102702  0.56681549    -0.11600
C713        C  0.42134609  0.43092897  0.56285898    -0.01400
C714        C  0.40106056  0.46030062  0.55866981    -0.10500
C715        C  0.35440217  0.33437445  0.56061957     0.05900
H716        H  0.39626721  0.29423636  0.56928396     0.07900
H717        H  0.43419434  0.34701500  0.57020251     0.11300
H718        H  0.40232013  0.50621551  0.55550593     0.11600
H719        H  0.36396225  0.45237505  0.55446525     0.07900
C720        C  0.33242644  0.36269381  0.56300741    -0.11200
C721        C  0.31101289  0.33059241  0.56218795    -0.10500
C722        C  0.31097566  0.26922784  0.55897336    -0.01400
C723        C  0.33294056  0.24054648  0.55665430    -0.11600
C724        C  0.35444292  0.27286435  0.55743765    -0.10000
H725        H  0.33178051  0.40955784  0.56566887     0.07900
H726        H  0.29441380  0.35406980  0.56412233     0.11600
H727        H  0.33349138  0.19349393  0.55410300     0.11300
H728        H  0.37109980  0.24989095  0.55540527     0.07900
C729        C  0.34150971  0.26289817  0.42705077    -0.11200
C730        C  0.34817859  0.31024383  0.43418820     0.05900
C731        C  0.33016157  0.34576768  0.43939258    -0.10000
C732        C  0.30591226  0.33292568  0.43770318    -0.11600
C733        C  0.29939037  0.28425905  0.43082608    -0.01400
C734        C  0.31744354  0.25005535  0.42539680    -0.10500
C735        C  0.37390027  0.32378026  0.43571953     0.05900
H736        H  0.33482284  0.38262245  0.44495124     0.07900
H737        H  0.29235391  0.35957377  0.44205852     0.11300
H738        H  0.31296817  0.21256656  0.41994132     0.11600
H739        H  0.35492543  0.23592120  0.42266606     0.07900
C740        C  0.39091154  0.27692342  0.43665021    -0.11200
C741        C  0.41543978  0.29012055  0.43694514    -0.10500
C742        C  0.42327537  0.35035631  0.43629318    -0.01400
C743        C  0.40612155  0.39704078  0.43583534    -0.11600
C744        C  0.38178500  0.38391659  0.43553184    -0.10000
H745        H  0.38525067  0.23005356  0.43697438     0.07900
H746        H  0.42821710  0.25332793  0.43735949     0.11600
H747        H  0.41148410  0.44412188  0.43540425     0.11300
H748        H  0.36920080  0.42090009  0.43469339     0.07900
C749        C  0.22071602  0.21767894  0.48112336    -0.11200
C750        C  0.24053524  0.18933855  0.48599162     0.05900
C751        C  0.25680811  0.15788753  0.47887910    -0.10000
C752        C  0.25378658  0.15702096  0.46715871    -0.11600
C753        C  0.23460545  0.18813868  0.46234426    -0.01400
C754        C  0.21788554  0.21738376  0.46947000    -0.10500
C755        C  0.24405469  0.19286496  0.49841513     0.05900
H756        H  0.27237611  0.13580854  0.48231085     0.07900
H757        H  0.26708809  0.13483578  0.46184332     0.11300
H758        H  0.20279918  0.24140319  0.46598422     0.11600
H759        H  0.20741405  0.24065887  0.48631017     0.07900
C760        C  0.23760939  0.24527972  0.50455559    -0.11200
C761        C  0.23974522  0.24721106  0.51630762    -0.10500
C762        C  0.24860073  0.19699693  0.52216907    -0.01400
C763        C  0.25569339  0.14540396  0.51598550    -0.11600
C764        C  0.25336837  0.14327968  0.50429860    -0.10000
H765        H  0.23083732  0.28490280  0.50028564     0.07900
H766        H  0.23418227  0.28762686  0.52080288     0.11600
H767        H  0.26249029  0.10563000  0.52020716     0.11300
H768        H  0.25821916  0.10193875  0.49992888     0.07900
C769        C  0.09896294  0.00828597  0.55495541    -0.11200
C770        C  0.10716601  0.06795799  0.55381621     0.05900
C771        C  0.09025874  0.11541911  0.55371606    -0.10000
C772        C  0.06569636  0.10330735  0.55488184    -0.11600
C773        C  0.05763773  0.04357725  0.55624569    -0.01400
C774        C  0.07457446  0.99627372  0.55618322    -0.10500
C775        C  0.13327608  0.08059060  0.55299363     0.05900
H776        H  0.09603307  0.16206722  0.55298342     0.07900
H777        H  0.05309815  0.14058747  0.55486717     0.11300
H778        H  0.06902140  0.94949633  0.55705533     0.11600
H779        H  0.11140116  0.97065791  0.55483785     0.07900
C780        C  0.14969663  0.04759182  0.55949695    -0.11200
C781        C  0.17406012  0.06275472  0.55933987    -0.10500
C782        C  0.18224185  0.11154513  0.55279214    -0.01400
C783        C  0.16610765  0.14276410  0.54595190    -0.11600
C784        C  0.14192195  0.12716164  0.54597411    -0.10000
H785        H  0.14358016  0.01180490  0.56508547     0.07900
H786        H  0.18618536  0.03883436  0.56480820     0.11600
H787        H  0.17216007  0.18052895  0.54080443     0.11300
H788        H  0.12991048  0.15239202  0.54065865     0.07900
C789        C  0.09588866  0.99381364  0.42706288    -0.11200
C790        C  0.09812077  0.05571240  0.42984831     0.05900
C791        C  0.07751383  0.08751605  0.43330232    -0.10000
C792        C  0.05526420  0.05912130  0.43362510    -0.11600
C793        C  0.05294147  0.99776748  0.43069698    -0.01400
C794        C  0.07350013  0.96493939  0.42758434    -0.10500
C795        C  0.12171633  0.08728440  0.42930065     0.05900
H796        H  0.07851463  0.13443965  0.43587172     0.07900
H797        H  0.03977316  0.08541218  0.43626597     0.11300
H798        H  0.07216695  0.91765850  0.42526839     0.11600
H799        H  0.11132260  0.96789158  0.42425705     0.07900
C800        C  0.14282049  0.05620168  0.43193943    -0.11200
C801        C  0.16486508  0.08588637  0.43159937    -0.10500
C802        C  0.16639072  0.14767729  0.42880412    -0.01400
C803        C  0.14541319  0.17925488  0.42626896    -0.11600
C804        C  0.12332095  0.14918395  0.42638328    -0.10000
H805        H  0.14233620  0.00912200  0.43446888     0.07900
H806        H  0.18077308  0.06051322  0.43372095     0.11600
H807        H  0.14615841  0.22671787  0.42399037     0.11300
H808        H  0.10754062  0.17443377  0.42406531     0.07900
C809        C  0.97711468  0.00251936  0.48339683    -0.11200
C810        C  0.98922196  0.95758943  0.48955720     0.05900
C811        C  0.00085578  0.91087219  0.48367249    -0.10000
C812        C  0.00027508  0.90862470  0.47194760    -0.11600
C813        C  0.98801788  0.95300900  0.46574678    -0.01400
C814        C  0.97655144  0.00031627  0.47158615    -0.10500
C815        C  0.99029328  0.96017213  0.50205269     0.05900
H816        H  0.01071815  0.87637487  0.48812888     0.07900
H817        H  0.00953653  0.87173793  0.46773157     0.11300
H818        H  0.96686242  0.03486348  0.46706146     0.11600
H819        H  0.96779380  0.03892282  0.48772601     0.07900
C820        C  0.99381381  0.01589056  0.50738841    -0.11200
C821        C  0.99429839  0.01942132  0.51908747    -0.10500
C822        C  0.99129230  0.96735238  0.52582046    -0.01400
C823        C  0.98867383  0.91099488  0.52054754    -0.11600
C824        C  0.98811195  0.90745268  0.50873346    -0.10000
H825        H  0.99624906  0.05695680  0.50250517     0.07900
H826        H  0.99683136  0.06349081  0.52288808     0.11600
H827        H  0.98629527  0.87025796  0.52552911     0.11300
H828        H  0.98536354  0.86375218  0.50483596     0.07900
C829        C  0.82424787  0.86211410  0.43816462    -0.11200
C830        C  0.84268655  0.83396322  0.43180861     0.05900
C831        C  0.83655665  0.79356020  0.42322292    -0.10000
C832        C  0.81268364  0.77946607  0.42134141    -0.11600
C833        C  0.79430245  0.80554975  0.42795810    -0.01400
C834        C  0.80017139  0.84804727  0.43623571    -0.10500
C835        C  0.86827934  0.84765950  0.43376177     0.05900
H836        H  0.85025598  0.77255402  0.41796535     0.07900
H837        H  0.80859364  0.74659247  0.41487748     0.11300
H838        H  0.78631712  0.86782279  0.44157289     0.11600
H839        H  0.82847364  0.89348613  0.44485041     0.07900
C840        C  0.87554119  0.90747471  0.43559944    -0.11200
C841        C  0.89980116  0.92173877  0.43607902    -0.10500
C842        C  0.91742190  0.87653632  0.43474253    -0.01400
C843        C  0.91021508  0.81614772  0.43351566    -0.11600
C844        C  0.88582157  0.80182871  0.43301303    -0.10000
H845        H  0.86252772  0.94376298  0.43614555     0.07900
H846        H  0.90475614  0.96876001  0.43716728     0.11600
H847        H  0.92337795  0.78044168  0.43252572     0.11300
H848        H  0.88067846  0.75504643  0.43179699     0.07900
C849        C  0.64757411  0.53736645  0.42904805    -0.11200
C850        C  0.62501816  0.56521314  0.42942780     0.05900
C851        C  0.62378848  0.62895505  0.42886529    -0.10000
C852        C  0.64467583  0.66397428  0.42813448    -0.11600
C853        C  0.66720119  0.63591708  0.42782538    -0.01400
C854        C  0.66836721  0.57221305  0.42823147    -0.10500
C855        C  0.60288330  0.52814437  0.43067471     0.05900
H856        H  0.60664190  0.65185890  0.42893241     0.07900
H857        H  0.64319253  0.71282137  0.42777904     0.11300
H858        H  0.68545277  0.54897847  0.42809453     0.11600
H859        H  0.64921978  0.48862411  0.42963311     0.07900
C860        C  0.60047367  0.47190241  0.42515055    -0.11200
C861        C  0.57895955  0.43911937  0.42598305    -0.10500
C862        C  0.55959347  0.46261282  0.43224324    -0.01400
C863        C  0.56235956  0.51727508  0.43809805    -0.11600
C864        C  0.58376369  0.54940717  0.43740052    -0.10000
H865        H  0.61486587  0.45433003  0.41986531     0.07900
H866        H  0.57705721  0.39730811  0.42132081     0.11600
H867        H  0.54764214  0.53586624  0.44307151     0.11300
H868        H  0.58521903  0.59137344  0.44204920     0.07900
C869        C  0.64899562  0.54975582  0.55551419    -0.11200
C870        C  0.63193296  0.58808731  0.55052266     0.05900
C871        C  0.63996633  0.63970869  0.54469438    -0.10000
C872        C  0.66420779  0.65464169  0.54443179    -0.11600
C873        C  0.68103954  0.61798137  0.54985836    -0.01400
C874        C  0.67341290  0.56441940  0.55511581    -0.10500
C875        C  0.60585377  0.57530753  0.55165311     0.05900
H876        H  0.62747085  0.66926619  0.54050098     0.07900
H877        H  0.66976911  0.69613925  0.54026540     0.11300
H878        H  0.68605924  0.53605775  0.55949440     0.11600
H879        H  0.64341059  0.50986507  0.56017033     0.07900
C880        C  0.59760448  0.51542505  0.55149974    -0.11200
C881        C  0.57336236  0.50278604  0.55306906    -0.10500
C882        C  0.55658670  0.54965749  0.55475465    -0.01400
C883        C  0.56456893  0.60982278  0.55457429    -0.11600
C884        C  0.58903652  0.62254590  0.55310465    -0.10000
H885        H  0.60988483  0.47809893  0.55013107     0.07900
H886        H  0.56777116  0.45582959  0.55296265     0.11600
H887        H  0.55205209  0.64674755  0.55585274     0.11300
H888        H  0.59482920  0.66928071  0.55339475     0.07900
C889        C  0.87920352  0.93197288  0.55457586    -0.11200
C890        C  0.87587149  0.87450935  0.55957101     0.05900
C891        C  0.89459120  0.84946081  0.56575976    -0.10000
C892        C  0.91646535  0.87932775  0.56648124    -0.11600
C893        C  0.92029736  0.93527166  0.56105792    -0.01400
C894        C  0.90126067  0.96218461  0.55532768    -0.10500
C895        C  0.85314278  0.84013022  0.55836427     0.05900
H896        H  0.89241094  0.80631181  0.56999898     0.07900
H897        H  0.93065524  0.85768669  0.57111522     0.11300
H898        H  0.90373671  0.00508492  0.55103507     0.11600
H899        H  0.86507888  0.95254432  0.54974805     0.07900
C900        C  0.83102201  0.87003982  0.55897583    -0.11200
C901        C  0.80967879  0.83744929  0.55831315    -0.10500
C902        C  0.80984383  0.77400507  0.55700057    -0.01400
C903        C  0.83195543  0.74402447  0.55621042    -0.11600
C904        C  0.85338271  0.77676013  0.55688666    -0.10000
H905        H  0.83016925  0.91856698  0.56021583     0.07900
H906        H  0.79297086  0.86226408  0.55887823     0.11600
H907        H  0.83270538  0.69541054  0.55508115     0.11300
H908        H  0.87018455  0.75245083  0.55618470     0.07900
C909        C  0.75568214  0.66408405  0.50208759    -0.11200
C910        C  0.74658828  0.71487812  0.49651447     0.05900
C911        C  0.73955801  0.76565333  0.50299233    -0.10000
C912        C  0.74079914  0.76452611  0.51479985    -0.11600
C913        C  0.74926184  0.71276721  0.52033203    -0.01400
C914        C  0.75709103  0.66313955  0.51379193    -0.10500
C915        C  0.74323479  0.71297855  0.48408845     0.05900
H916        H  0.73283697  0.80601611  0.49894448     0.07900
H917        H  0.73475579  0.80354751  0.51958216     0.11300
H918        H  0.76368185  0.62229470  0.51772681     0.11600
H919        H  0.76089433  0.62387055  0.49744618     0.07900
C920        C  0.75968346  0.68257249  0.47691280    -0.11200
C921        C  0.75586971  0.67903492  0.46528115    -0.10500
C922        C  0.73569225  0.70642862  0.46059552    -0.01400
C923        C  0.71919383  0.73622496  0.46776831    -0.11600
C924        C  0.72284728  0.73922966  0.47935291    -0.10000
H925        H  0.77574017  0.66239752  0.48025448     0.07900
H926        H  0.76910153  0.65690350  0.45991923     0.11600
H927        H  0.70344314  0.75780846  0.46438752     0.11300
H928        H  0.70951453  0.76163810  0.48461168     0.07900
C929        C  0.99193299  0.28351406  0.88480266    -0.11200
C930        C  0.98290344  0.32177090  0.87647087     0.05900
C931        C  0.97570773  0.38081967  0.87953859    -0.10000
C932        C  0.97732635  0.40074081  0.89075431    -0.11600
C933        C  0.98639197  0.36214347  0.89907988    -0.01400
C934        C  0.99372248  0.30339458  0.89590840    -0.10500
C935        C  0.98205416  0.30042815  0.86458011     0.05900
H936        H  0.96858777  0.41131730  0.87328241     0.07900
H937        H  0.97136823  0.44599367  0.89291109     0.11300
H938        H  0.00081208  0.27216006  0.90204607     0.11600
H939        H  0.99803727  0.23830335  0.88269357     0.07900
C940        C  0.99005961  0.33821750  0.85580308    -0.11200
C941        C  0.99074221  0.31738930  0.84469774    -0.10500
C942        C  0.98327132  0.25820467  0.84200660    -0.01400
C943        C  0.97497104  0.22042221  0.85076336    -0.11600
C944        C  0.97446356  0.24125943  0.86194695    -0.10000
H945        H  0.99635386  0.38358125  0.85755493     0.07900
H946        H  0.99719556  0.34804976  0.83819652     0.11600
H947        H  0.96892751  0.17488609  0.84898395     0.11300
H948        H  0.96804446  0.21117512  0.86854806     0.07900
C949        C  0.97823782  0.06652143  0.63516085    -0.11200
C950        C  0.98529344  0.10690049  0.62662424     0.05900
C951        C  0.98964973  0.16790526  0.62950760    -0.10000
C952        C  0.98678350  0.18791031  0.64069994    -0.11600
C953        C  0.97924916  0.14736257  0.64916108    -0.01400
C954        C  0.97524222  0.08640197  0.64622855    -0.10500
C955        C  0.98677673  0.08556161  0.61472555     0.05900
H956        H  0.99530404  0.20010168  0.62310938     0.07900
H957        H  0.99013624  0.23495782  0.64269447     0.11300
H958        H  0.96965041  0.05352329  0.65252085     0.11600
H959        H  0.97436622  0.01962867  0.63324702     0.07900
C960        C  0.99582556  0.02765112  0.61197149    -0.11200
C961        C  0.99587538  0.00669935  0.60080038    -0.10500
C962        C  0.98688726  0.04328430  0.59217144    -0.01400
C963        C  0.97787335  0.10106763  0.59498137    -0.11600
C964        C  0.97783427  0.12185760  0.60607406    -0.10000
H965        H  0.00300119  0.99866201  0.61845302     0.07900
H966        H  0.00306805  0.96223747  0.59891674     0.11600
H967        H  0.97067850  0.13059374  0.58858572     0.11300
H968        H  0.97027204  0.16599473  0.60790757     0.07900
C969        C  0.97682640  0.25204767  0.73373906    -0.11200
C970        C  0.96965156  0.19967627  0.73974192     0.05900
C971        C  0.96036445  0.15073062  0.73372283    -0.10000
C972        C  0.95889177  0.15312807  0.72202618    -0.11600
C973        C  0.96681280  0.20441469  0.71593838    -0.01400
C974        C  0.97550068  0.25432363  0.72193534    -0.10500
C975        C  0.97295940  0.19438958  0.75213417     0.05900
H976        H  0.95502696  0.10944488  0.73800688     0.07900
H977        H  0.95219520  0.11350555  0.71773051     0.11300
H978        H  0.98166887  0.29446794  0.71751420     0.11600
H979        H  0.98372826  0.29101470  0.73816053     0.07900
C980        C  0.99362743  0.21796155  0.75705835    -0.11200
C981        C  0.99695356  0.21325387  0.76864686    -0.10500
C982        C  0.97980225  0.18452704  0.77563923    -0.01400
C983        C  0.95947612  0.15899833  0.77074134    -0.11600
C984        C  0.95603769  0.16406753  0.75908876    -0.10000
H985        H  0.00730495  0.24011098  0.75194981     0.07900
H986        H  0.01280593  0.23344225  0.77220747     0.11600
H987        H  0.94574396  0.13783692  0.77596885     0.11300
H988        H  0.93981601  0.14570918  0.75557286     0.07900
C989        C  0.70813961  0.34209493  0.85388694    -0.11200
C990        C  0.72869160  0.34725141  0.86045323     0.05900
C991        C  0.74853898  0.37960354  0.85610727    -0.10000
C992        C  0.74792351  0.40518800  0.84525631    -0.11600
C993        C  0.72765754  0.39747329  0.83854946    -0.01400
C994        C  0.70772569  0.36634827  0.84303533    -0.10500
C995        C  0.72901078  0.31843590  0.87176308     0.05900
H996        H  0.76451165  0.38463481  0.86107032     0.07900
H997        H  0.76362565  0.42827709  0.84190957     0.11300
H998        H  0.69194619  0.35949990  0.83800297     0.11600
H999        H  0.69262963  0.31738548  0.85702068     0.07900
C1000       C  0.70990493  0.32836231  0.87937426    -0.11200
C1001       C  0.70950298  0.30046554  0.88992809    -0.10500
C1002       C  0.72798152  0.26105016  0.89308761    -0.01400
C1003       C  0.74691772  0.24985742  0.88541036    -0.11600
C1004       C  0.74754999  0.27887452  0.87485509    -0.10000
H1005       H  0.69540293  0.35856024  0.87720448     0.07900
H1006       H  0.69475846  0.31021474  0.89570523     0.11600
H1007       H  0.76155914  0.22043370  0.88771605     0.11300
H1008       H  0.76235286  0.27003801  0.86906579     0.07900
C1009       C  0.82443381  0.28565574  0.80267229    -0.11200
C1010       C  0.84314821  0.32858378  0.80216458     0.05900
C1011       C  0.83741941  0.39006348  0.80129156    -0.10000
C1012       C  0.81366274  0.40861199  0.80133428    -0.11600
C1013       C  0.79488971  0.36626592  0.80231883    -0.01400
C1014       C  0.80043467  0.30438984  0.80273700    -0.10500
C1015       C  0.86852269  0.31049058  0.80340831     0.05900
H1016       H  0.85130617  0.42430723  0.80105252     0.07900
H1017       H  0.81007255  0.45673075  0.80088059     0.11300
H1018       H  0.78633797  0.27082671  0.80343579     0.11600
H1019       H  0.82836234  0.23774623  0.80320209     0.07900
C1020       C  0.87450139  0.26571315  0.81124339    -0.11200
C1021       C  0.89836000  0.25066736  0.81294638    -0.10500
C1022       C  0.91685796  0.28021877  0.80691086    -0.01400
C1023       C  0.91106943  0.32567593  0.79918662    -0.11600
C1024       C  0.88705181  0.34049422  0.79740192    -0.10000
H1025       H  0.86075779  0.24289279  0.81620705     0.07900
H1026       H  0.90235593  0.21539094  0.81897972     0.11600
H1027       H  0.92499345  0.34817943  0.79428247     0.11300
H1028       H  0.88296198  0.37493483  0.79122931     0.07900
C1029       C  0.73409276  0.62967792  0.63040556    -0.11200
C1030       C  0.73079593  0.58767674  0.62171096     0.05900
C1031       C  0.72645565  0.52659594  0.62463520    -0.10000
C1032       C  0.72588551  0.50808184  0.63598039    -0.11600
C1033       C  0.72974577  0.55023874  0.64461802    -0.01400
C1034       C  0.73354382  0.61131508  0.64165414    -0.10500
C1035       C  0.73307551  0.60755407  0.60969926     0.05900
H1036       H  0.72354428  0.49306443  0.61815285     0.07900
H1037       H  0.72283006  0.46081350  0.63796992     0.11300
H1038       H  0.73647493  0.64531243  0.64805473     0.11600
H1039       H  0.73785933  0.67674285  0.62852695     0.07900
C1040       C  0.72489168  0.66497540  0.60622410    -0.11200
C1041       C  0.72827410  0.68466585  0.59505278    -0.10500
C1042       C  0.73992567  0.64740360  0.58710100    -0.01400
C1043       C  0.74796089  0.58994738  0.59058809    -0.11600
C1044       C  0.74458830  0.57035968  0.60169916    -0.10000
H1045       H  0.71568370  0.69462167  0.61212727     0.07900
H1046       H  0.72166732  0.72882039  0.59263769     0.11600
H1047       H  0.75693929  0.55968763  0.58471049     0.11300
H1048       H  0.75151533  0.52645364  0.60406987     0.07900
C1049       C  0.84067784  0.43662698  0.68080142    -0.11200
C1050       C  0.84365644  0.38132094  0.67500605     0.05900
C1051       C  0.82493877  0.36017302  0.66833762    -0.10000
C1052       C  0.80331454  0.39157347  0.66795131    -0.11600
C1053       C  0.79982849  0.44505127  0.67419989    -0.01400
C1054       C  0.81893124  0.46834178  0.68038028    -0.10500
C1055       C  0.86592372  0.34493935  0.67605896     0.05900
H1056       H  0.82687956  0.31871252  0.66353927     0.07900
H1057       H  0.78897306  0.37288663  0.66299726     0.11300
H1058       H  0.81664472  0.50913965  0.68534263     0.11600
H1059       H  0.85478947  0.45405498  0.68603672     0.07900
C1060       C  0.88833967  0.37348681  0.67603908    -0.11200
C1061       C  0.90926558  0.33951620  0.67702514    -0.10500
C1062       C  0.90839200  0.27597003  0.67810636    -0.01400
C1063       C  0.88597137  0.24720765  0.67812682    -0.11600
C1064       C  0.86494696  0.28136060  0.67709152    -0.10000
H1065       H  0.88974029  0.42215716  0.67512248     0.07900
H1066       H  0.92620956  0.36340733  0.67697649     0.11600
H1067       H  0.88466857  0.19850063  0.67898742     0.11300
H1068       H  0.84787210  0.25807404  0.67727450     0.07900
C1069       C  0.73321022  0.52721533  0.72990439    -0.11200
C1070       C  0.73260377  0.47033723  0.73516676     0.05900
C1071       C  0.73234937  0.41805611  0.72832816    -0.10000
C1072       C  0.73261328  0.42281079  0.71651632    -0.11600
C1073       C  0.73337572  0.47991388  0.71132469    -0.01400
C1074       C  0.73369076  0.53191220  0.71818544    -0.10500
C1075       C  0.73168320  0.46613349  0.74772043     0.05900
H1076       H  0.73216194  0.37341885  0.73210186     0.07900
H1077       H  0.73244872  0.38199265  0.71146834     0.11300
H1078       H  0.73396230  0.57677977  0.71449436     0.11600
H1079       H  0.73285965  0.56841934  0.73484248     0.07900
C1080       C  0.74439101  0.50735425  0.75445300    -0.11200
C1081       C  0.74307610  0.50394669  0.76625137    -0.10500
C1082       C  0.72918520  0.45895062  0.77157527    -0.01400
C1083       C  0.71639037  0.41809271  0.76484522    -0.11600
C1084       C  0.71756999  0.42173223  0.75309646    -0.10000
H1085       H  0.75568389  0.54174218  0.75060550     0.07900
H1086       H  0.75330278  0.53568399  0.77118907     0.11600
H1087       H  0.70537289  0.38302004  0.76866364     0.11300
H1088       H  0.70714570  0.39012105  0.74822721     0.07900
C1089       C  0.47320533  0.57923992  0.63439977    -0.11200
C1090       C  0.48739850  0.61244029  0.62675037     0.05900
C1091       C  0.49753693  0.66751122  0.63032141    -0.10000
C1092       C  0.49368359  0.68846145  0.64137862    -0.11600
C1093       C  0.47951677  0.65482800  0.64902353    -0.01400
C1094       C  0.46928545  0.60012836  0.64535065    -0.10500
C1095       C  0.49031831  0.59081016  0.61494719     0.05900
H1096       H  0.50864015  0.69400708  0.62459515     0.07900
H1097       H  0.50202350  0.73034000  0.64397687     0.11300
H1098       H  0.45823130  0.57289167  0.65097614     0.11600
H1099       H  0.46471897  0.53743642  0.63185532     0.07900
C1100       C  0.49373594  0.52888005  0.61252128    -0.11200
C1101       C  0.49411849  0.50808518  0.60135248    -0.10500
C1102       C  0.49087669  0.54880471  0.59242446    -0.01400
C1103       C  0.48816660  0.61086099  0.59488205    -0.11600
C1104       C  0.48795478  0.63156915  0.60598225    -0.10000
H1105       H  0.49584883  0.49645227  0.61928052     0.07900
H1106       H  0.49637570  0.46016232  0.59972822     0.11600
H1107       H  0.48583562  0.64369092  0.58820624     0.11300
H1108       H  0.48503340  0.67931938  0.60756087     0.07900
C1109       C  0.57105705  0.55590775  0.68155330    -0.11200
C1110       C  0.58827725  0.59642628  0.68576239     0.05900
C1111       C  0.58048598  0.65099640  0.69061571    -0.10000
C1112       C  0.55631372  0.66641237  0.69066769    -0.11600
C1113       C  0.53927534  0.62741509  0.68598487    -0.01400
C1114       C  0.54668025  0.57118925  0.68172132    -0.10500
C1115       C  0.61431118  0.58307486  0.68478797     0.05900
H1116       H  0.59313615  0.68237157  0.69421803     0.07900
H1117       H  0.55097160  0.70982344  0.69413931     0.11300
H1118       H  0.53386927  0.54069755  0.67798428     0.11600
H1119       H  0.57649984  0.51357749  0.67769461     0.07900
C1120       C  0.62271590  0.52386850  0.68628210    -0.11200
C1121       C  0.64704046  0.51091894  0.68500048    -0.10500
C1122       C  0.66362774  0.55689264  0.68226911    -0.01400
C1123       C  0.65542565  0.61643170  0.68103061    -0.11600
C1124       C  0.63095510  0.62935621  0.68220680    -0.10000
H1125       H  0.61050120  0.48747288  0.68848755     0.07900
H1126       H  0.65287204  0.46458845  0.68615512     0.11600
H1127       H  0.66779478  0.65257010  0.67886355     0.11300
H1128       H  0.62501283  0.67538575  0.68083551     0.07900
C1129       C  0.48854182  0.86506315  0.85661798    -0.11200
C1130       C  0.48809673  0.82162736  0.86528462     0.05900
C1131       C  0.48814615  0.75979251  0.86222029    -0.10000
C1132       C  0.48809393  0.74218144  0.85085480    -0.11600
C1133       C  0.48849540  0.78590860  0.84226959    -0.01400
C1134       C  0.48892914  0.84747292  0.84530883    -0.10500
C1135       C  0.48706081  0.84081564  0.87740439     0.05900
H1136       H  0.48840687  0.72471410  0.86858685     0.07900
H1137       H  0.48799191  0.69442959  0.84879104     0.11300
H1138       H  0.48907992  0.88248824  0.83891126     0.11600
H1139       H  0.48803000  0.91294760  0.85851792     0.07900
C1140       C  0.49776202  0.89532943  0.88102448    -0.11200
C1141       C  0.49675650  0.91263669  0.89241521    -0.10500
C1142       C  0.48551287  0.87516645  0.90043999    -0.01400
C1143       C  0.47462313  0.82137613  0.89686338    -0.11600
C1144       C  0.47510572  0.80479512  0.88550859    -0.10000
H1145       H  0.50750722  0.92398916  0.87513687     0.07900
H1146       H  0.50566974  0.95374803  0.89501942     0.11600
H1147       H  0.46579987  0.79174791  0.90292416     0.11300
H1148       H  0.46602315  0.76359548  0.88312294     0.07900
C1149       C  0.64176094  0.60968232  0.80832449    -0.11200
C1150       C  0.61996493  0.57830210  0.80796657     0.05900
C1151       C  0.62034289  0.51456119  0.80733978    -0.10000
C1152       C  0.64211343  0.48305017  0.80700641    -0.11600
C1153       C  0.66386400  0.51475264  0.80737849    -0.01400
C1154       C  0.66338561  0.57836074  0.80807700    -0.10500
C1155       C  0.59702985  0.61229624  0.80805086     0.05900
H1156       H  0.60380646  0.48895679  0.80720101     0.07900
H1157       H  0.64192156  0.43411614  0.80648662     0.11300
H1158       H  0.67981429  0.60441145  0.80828570     0.11600
H1159       H  0.64217029  0.65866261  0.80857670     0.07900
C1160       C  0.59406056  0.66506679  0.81462209    -0.11200
C1161       C  0.57235923  0.69680239  0.81467037    -0.10500
C1162       C  0.55324942  0.67550677  0.80831399    -0.01400
C1163       C  0.55623433  0.62348835  0.80166276    -0.11600
C1164       C  0.57795823  0.59250441  0.80143929    -0.10000
H1165       H  0.60831233  0.68107976  0.81992720     0.07900
H1166       H  0.57018966  0.73636694  0.81997688     0.11600
H1167       H  0.54161342  0.60663225  0.79665577     0.11300
H1168       H  0.57980350  0.55308056  0.79607973     0.07900
C1169       C  0.46395700  0.68191665  0.75906649    -0.11200
C1170       C  0.48027211  0.71359531  0.75200740     0.05900
C1171       C  0.49945093  0.74418994  0.75697273    -0.10000
C1172       C  0.50167139  0.74535123  0.76866968    -0.11600
C1173       C  0.48499881  0.71522930  0.77570148    -0.01400
C1174       C  0.46641901  0.68233945  0.77079800    -0.10500
C1175       C  0.47733754  0.71473475  0.73954222     0.05900
H1176       H  0.51272991  0.76758164  0.75182900     0.07900
H1177       H  0.51631762  0.77066099  0.77224774     0.11300
H1178       H  0.45318414  0.65937764  0.77604312     0.11600
H1179       H  0.44880519  0.65835126  0.75556832     0.07900
C1180       C  0.46869056  0.66349045  0.73395093    -0.11200
C1181       C  0.46615002  0.66371378  0.72229272    -0.10500
C1182       C  0.47243799  0.71494361  0.71580838    -0.01400
C1183       C  0.48098230  0.76654273  0.72134316    -0.11600
C1184       C  0.48329673  0.76654348  0.73310269    -0.10000
H1185       H  0.46437604  0.62242569  0.73854244     0.07900
H1186       H  0.45975232  0.62275142  0.71833773     0.11600
H1187       H  0.48605200  0.80658195  0.71659714     0.11300
H1188       H  0.48967024  0.80724421  0.73714655     0.07900
C1189       C  0.23198735  0.02806401  0.62551152    -0.11200
C1190       C  0.23082461  0.09087745  0.62342850     0.05900
C1191       C  0.22661028  0.13019490  0.63250455    -0.10000
C1192       C  0.22474564  0.10762478  0.64346815    -0.11600
C1193       C  0.22684431  0.04513199  0.64562852    -0.01400
C1194       C  0.22985088  0.00531099  0.63652244    -0.10500
C1195       C  0.23522022  0.11547191  0.61192220     0.05900
H1196       H  0.22571815  0.17867076  0.63118173     0.07900
H1197       H  0.22219103  0.13946144  0.65032530     0.11300
H1198       H  0.23151916  0.95706492  0.63794822     0.11600
H1199       H  0.23490000  0.99663714  0.61862277     0.07900
C1200       C  0.25405279  0.09223301  0.60526279    -0.11200
C1201       C  0.25782212  0.11278993  0.59426878    -0.10500
C1202       C  0.24283954  0.15713825  0.58961315    -0.01400
C1203       C  0.22472049  0.18285714  0.59643496    -0.11600
C1204       C  0.22095262  0.16219999  0.60752143    -0.10000
H1205       H  0.26578694  0.05759873  0.60853446     0.07900
H1206       H  0.27218210  0.09264848  0.58928870     0.11600
H1207       H  0.21285178  0.21686987  0.59305810     0.11300
H1208       H  0.20637189  0.18119650  0.61251188     0.07900
C1209       C  0.12728499  0.11582862  0.68412277    -0.11200
C1210       C  0.11045768  0.06836675  0.68521151     0.05900
C1211       C  0.11874569  0.00850853  0.68512345    -0.10000
C1212       C  0.14310272  0.99617992  0.68379036    -0.11600
C1213       C  0.15994385  0.04334137  0.68255034    -0.01400
C1214       C  0.15183236  0.10342360  0.68284975    -0.10500
C1215       C  0.08434433  0.08102863  0.68627652     0.05900
H1216       H  0.10639854  0.97100727  0.68615782     0.07900
H1217       H  0.14873397  0.94925875  0.68375017     0.11300
H1218       H  0.16434887  0.14061441  0.68188039     0.11600
H1219       H  0.12143556  0.16255115  0.68401462     0.07900
C1220       C  0.07616552  0.13070677  0.69261481    -0.11200
C1221       C  0.05193957  0.14596882  0.69283127    -0.10500
C1222       C  0.03526797  0.11164251  0.68681709    -0.01400
C1223       C  0.04301935  0.05977210  0.68103541    -0.11600
C1224       C  0.06742132  0.04469592  0.68072370    -0.10000
H1225       H  0.08857324  0.15862760  0.69722117     0.07900
H1226       H  0.04629476  0.18617344  0.69738490     0.11600
H1227       H  0.03052426  0.03331464  0.67618865     0.11300
H1228       H  0.07315676  0.00628309  0.67569830     0.07900
C1229       C  0.38619314  0.86800377  0.67577977    -0.11200
C1230       C  0.36439409  0.83699800  0.67707902     0.05900
C1231       C  0.36493460  0.77411189  0.67915821    -0.10000
C1232       C  0.38679662  0.74320426  0.67998747    -0.11600
C1233       C  0.40857661  0.77453354  0.67874657    -0.01400
C1234       C  0.40794175  0.83726867  0.67659568    -0.10500
C1235       C  0.34124217  0.87016774  0.67620923     0.05900
H1236       H  0.34843679  0.74891597  0.68032896     0.07900
H1237       H  0.38664063  0.69502337  0.68168639     0.11300
H1238       H  0.42433951  0.86302704  0.67554846     0.11600
H1239       H  0.38647121  0.91608839  0.67399180     0.07900
C1240       C  0.33826439  0.92859360  0.68082935    -0.11200
C1241       C  0.31611124  0.95849802  0.68034279    -0.10500
C1242       C  0.29650646  0.93045512  0.67525632    -0.01400
C1243       C  0.29980434  0.87303811  0.67030145    -0.11600
C1244       C  0.32182787  0.84337028  0.67076812    -0.10000
H1245       H  0.35284348  0.95041952  0.68514487     0.07900
H1246       H  0.31408676  0.00237574  0.68431309     0.11600
H1247       H  0.28513862  0.85023748  0.66621479     0.11300
H1248       H  0.32361833  0.79920342  0.66688553     0.07900
C1249       C  0.23317059  0.88885192  0.85795580    -0.11200
C1250       C  0.22922049  0.82789992  0.86101269     0.05900
C1251       C  0.22421654  0.78581730  0.85254179    -0.10000
C1252       C  0.22309292  0.80390394  0.84131768    -0.11600
C1253       C  0.22698926  0.86468817  0.83819376    -0.01400
C1254       C  0.23215208  0.90706147  0.84663275    -0.10500
C1255       C  0.22933153  0.80801945  0.87298922     0.05900
H1256       H  0.22065366  0.73886902  0.85461252     0.07900
H1257       H  0.21910817  0.76982380  0.83506754     0.11300
H1258       H  0.23532420  0.95409722  0.84449792     0.11600
H1259       H  0.23721324  0.92231315  0.86431003     0.07900
C1260       C  0.23929530  0.75186127  0.87605639    -0.11200
C1261       C  0.23809805  0.73167060  0.88725313    -0.10500
C1262       C  0.22692501  0.76726612  0.89561176    -0.01400
C1263       C  0.21714454  0.82358255  0.89252522    -0.11600
C1264       C  0.21834650  0.84367965  0.88137340    -0.10000
H1265       H  0.24813932  0.72363413  0.86979296     0.07900
H1266       H  0.24608712  0.68855985  0.88937461     0.11600
H1267       H  0.20845136  0.85239224  0.89874310     0.11300
H1268       H  0.21018598  0.88662153  0.87927360     0.07900
C1269       C  0.32719031  0.78545094  0.80356227    -0.11200
C1270       C  0.34397112  0.83300367  0.80254390     0.05900
C1271       C  0.33563719  0.89196087  0.80070201    -0.10000
C1272       C  0.31116591  0.90369567  0.80045206    -0.11600
C1273       C  0.29435880  0.85684724  0.80206984    -0.01400
C1274       C  0.30255460  0.79728559  0.80331860    -0.10500
C1275       C  0.36992233  0.82213878  0.80415655     0.05900
H1276       H  0.34797525  0.92965185  0.79996709     0.07900
H1277       H  0.30540525  0.95009704  0.79931827     0.11300
H1278       H  0.28999514  0.76035563  0.80451695     0.11600
H1279       H  0.33310260  0.73925106  0.80476325     0.07900
C1280       C  0.37736100  0.78110340  0.81241947    -0.11200
C1281       C  0.40162821  0.77075943  0.81409938    -0.10500
C1282       C  0.41908406  0.80165946  0.80765544    -0.01400
C1283       C  0.41185159  0.84422357  0.79963452    -0.11600
C1284       C  0.38743296  0.85416446  0.79785036    -0.10000
H1285       H  0.36441570  0.75706549  0.81764964     0.07900
H1286       H  0.40677776  0.73782273  0.82037992     0.11600
H1287       H  0.42500570  0.86780198  0.79444072     0.11300
H1288       H  0.38227599  0.88587071  0.79136779     0.07900
C1289       C  0.13195837  0.04993548  0.80104444    -0.11200
C1290       C  0.11371149  0.02896252  0.80834407     0.05900
C1291       C  0.11743062  0.97470719  0.81437294    -0.10000
C1292       C  0.13923337  0.94337458  0.81335018    -0.11600
C1293       C  0.15764435  0.96636629  0.80640355    -0.01400
C1294       C  0.15370013  0.01930837  0.80017220    -0.10500
C1295       C  0.09093090  0.06362540  0.80948275     0.05900
H1296       H  0.10379794  0.95745261  0.82013024     0.07900
H1297       H  0.14210570  0.90305493  0.81834916     0.11300
H1298       H  0.16771158  0.03759015  0.79471838     0.11600
H1299       H  0.12951369  0.09031622  0.79601765     0.07900
C1300       C  0.09082808  0.12748367  0.80906644    -0.11200
C1301       C  0.06923347  0.15982355  0.80937473    -0.10500
C1302       C  0.04731565  0.12896987  0.81022504    -0.01400
C1303       C  0.04751267  0.06528318  0.81095572    -0.11600
C1304       C  0.06899162  0.03308494  0.81055835    -0.10000
H1305       H  0.10746748  0.15256906  0.80846926     0.07900
H1306       H  0.06969260  0.20876478  0.80887857     0.11600
H1307       H  0.03095553  0.03983996  0.81159350     0.11300
H1308       H  0.06831863  0.98410947  0.81075174     0.07900
C1309       C  0.21456768  0.89556566  0.75297294    -0.11200
C1310       C  0.22751655  0.94274534  0.74778254     0.05900
C1311       C  0.23912916  0.98529315  0.75467992    -0.10000
C1312       C  0.23777361  0.98065842  0.76644067    -0.11600
C1313       C  0.22512867  0.93283806  0.77155229    -0.01400
C1314       C  0.21351640  0.89047737  0.76468614    -0.10500
C1315       C  0.22833772  0.94841698  0.73526309     0.05900
H1316       H  0.24963842  0.02172176  0.75101342     0.07900
H1317       H  0.24709652  0.01357521  0.77151217     0.11300
H1318       H  0.20348479  0.85320370  0.76837108     0.11600
H1319       H  0.20492022  0.86283699  0.74800765     0.07900
C1320       C  0.22811908  0.89696650  0.72819667    -0.11200
C1321       C  0.22825427  0.90321419  0.71642205    -0.10500
C1322       C  0.22901060  0.96096357  0.71151863    -0.01400
C1323       C  0.22932014  0.01208700  0.71859155    -0.11600
C1324       C  0.22881350  0.00594671  0.73025781    -0.10000
H1325       H  0.22810700  0.85181201  0.73174172     0.07900
H1326       H  0.22811410  0.86309289  0.71118309     0.11600
H1327       H  0.22958963  0.05744322  0.71511193     0.11300
H1328       H  0.22832542  0.04663446  0.73533521     0.07900
C1329       C  0.22562646  0.35507132  0.38283200    -0.11200
C1330       C  0.23126354  0.31617752  0.37383895     0.05900
C1331       C  0.23702799  0.25537080  0.37624622    -0.10000
C1332       C  0.23694626  0.23398207  0.38738692    -0.11600
C1333       C  0.23101160  0.27291169  0.39635259    -0.01400
C1334       C  0.22547144  0.33376233  0.39391364    -0.10500
C1335       C  0.23023068  0.33840334  0.36199162     0.05900
H1336       H  0.24175279  0.22433948  0.36950633     0.07900
H1337       H  0.24145316  0.18709312  0.38897048     0.11300
H1338       H  0.22091563  0.36531699  0.40059556     0.11600
H1339       H  0.22079487  0.40180000  0.38129648     0.07900
C1340       C  0.22059663  0.30126357  0.35364214    -0.11200
C1341       C  0.21946802  0.32115987  0.34251806    -0.10500
C1342       C  0.22797638  0.37890436  0.33934343    -0.01400
C1343       C  0.23726858  0.41681433  0.34770173    -0.11600
C1344       C  0.23833258  0.39678825  0.35893178    -0.10000
H1345       H  0.21367186  0.25675251  0.35572030     0.07900
H1346       H  0.21204619  0.29059010  0.33636072     0.11600
H1347       H  0.24400675  0.46139404  0.34554465     0.11300
H1348       H  0.24593497  0.42652301  0.36517575     0.07900
C1349       C  0.22403149  0.63694876  0.10748154    -0.11200
C1350       C  0.23444908  0.58173892  0.11085696     0.05900
C1351       C  0.24786786  0.54864560  0.10288821    -0.10000
C1352       C  0.25066370  0.56970209  0.09184778    -0.11600
C1353       C  0.24010341  0.62453473  0.08840503    -0.01400
C1354       C  0.22682833  0.65813119  0.09637154    -0.10500
C1355       C  0.23229141  0.55993201  0.12273895     0.05900
H1356       H  0.25656521  0.50676223  0.10522520     0.07900
H1357       H  0.26111394  0.54252506  0.08597282     0.11300
H1358       H  0.21830319  0.70015207  0.09398343     0.11600
H1359       H  0.21342001  0.66342530  0.11339979     0.07900
C1360       C  0.23390194  0.60135370  0.13163008    -0.11200
C1361       C  0.23321715  0.58156646  0.14278628    -0.10500
C1362       C  0.23089922  0.51962311  0.14546043    -0.01400
C1363       C  0.22877603  0.47789455  0.13661295    -0.11600
C1364       C  0.22957535  0.49785524  0.12534681    -0.10000
H1365       H  0.23638444  0.64919390  0.12997668     0.07900
H1366       H  0.23480022  0.61524356  0.14936077     0.11600
H1367       H  0.22700187  0.42998070  0.13838381     0.11300
H1368       H  0.22807751  0.46473554  0.11867472     0.07900
C1369       C  0.24772669  0.48425315  0.25508267    -0.11200
C1370       C  0.23431942  0.44340297  0.24855667     0.05900
C1371       C  0.21914756  0.40211162  0.25413102    -0.10000
C1372       C  0.21758953  0.40101959  0.26586451    -0.11600
C1373       C  0.23104916  0.44139821  0.27240292    -0.01400
C1374       C  0.24602091  0.48343700  0.26689678    -0.10500
C1375       C  0.23528224  0.44528086  0.23599843     0.05900
H1376       H  0.20813286  0.37107088  0.24942770     0.07900
H1377       H  0.20572976  0.36820007  0.26982930     0.11300
H1378       H  0.25680025  0.51456557  0.27170485     0.11600
H1379       H  0.25981669  0.51631903  0.25106910     0.07900
C1380       C  0.23701717  0.50110248  0.23042969    -0.11200
C1381       C  0.23698106  0.50393419  0.21871081    -0.10500
C1382       C  0.23503135  0.45108819  0.21214069    -0.01400
C1383       C  0.23324093  0.39497263  0.21763436    -0.11600
C1384       C  0.23349332  0.39206569  0.22946328    -0.10000
H1385       H  0.23783321  0.54303972  0.23512608     0.07900
H1386       H  0.23812142  0.54818744  0.21479763     0.11600
H1387       H  0.23184691  0.35355010  0.21281421     0.11300
H1388       H  0.23240446  0.34812281  0.23348626     0.07900
C1389       C  0.47488557  0.22879777  0.36389009    -0.11200
C1390       C  0.48238200  0.28817271  0.36641868     0.05900
C1391       C  0.48986182  0.32602234  0.35753462    -0.10000
C1392       C  0.49021319  0.30502396  0.34645345    -0.11600
C1393       C  0.48310601  0.24547938  0.34390486    -0.01400
C1394       C  0.47521916  0.20767789  0.35273985    -0.10500
C1395       C  0.48367980  0.30985473  0.37827619     0.05900
H1396       H  0.49610944  0.37154453  0.35916145     0.07900
H1397       H  0.49628089  0.33566557  0.33986870     0.11300
H1398       H  0.46945152  0.16180882  0.35105140     0.11600
H1399       H  0.46873063  0.19865247  0.37053425     0.07900
C1400       C  0.47818628  0.37029378  0.38115303    -0.11200
C1401       C  0.48080892  0.39111326  0.39223034    -0.10500
C1402       C  0.48899931  0.35191431  0.40064727    -0.01400
C1403       C  0.49425893  0.29145375  0.39775309    -0.11600
C1404       C  0.49164164  0.27076578  0.38674363    -0.10000
H1405       H  0.47172858  0.40145338  0.37484795     0.07900
H1406       H  0.47635017  0.43766919  0.39420486     0.11600
H1407       H  0.50049565  0.25971326  0.40401308     0.11300
H1408       H  0.49642781  0.22435665  0.38481982     0.07900
C1409       C  0.37565690  0.25159450  0.31200088    -0.11200
C1410       C  0.37031559  0.30077715  0.30503762     0.05900
C1411       C  0.38926214  0.33333256  0.29986050    -0.10000
C1412       C  0.41312072  0.31598149  0.30148781    -0.11600
C1413       C  0.41826359  0.26585018  0.30829928    -0.01400
C1414       C  0.39928359  0.23438784  0.31361005    -0.10500
C1415       C  0.34503393  0.31956344  0.30382140     0.05900
H1416       H  0.38559343  0.37159619  0.29444648     0.07900
H1417       H  0.42740815  0.34062142  0.29722573     0.11300
H1418       H  0.40267120  0.19590883  0.31901973     0.11600
H1419       H  0.36153551  0.22679499  0.31635495     0.07900
C1420       C  0.32662223  0.27633120  0.30274346    -0.11200
C1421       C  0.30252711  0.29415566  0.30284681    -0.10500
C1422       C  0.29651686  0.35547678  0.30405356    -0.01400
C1423       C  0.31506656  0.39857177  0.30477323    -0.11600
C1424       C  0.33897438  0.38085343  0.30465260    -0.10000
H1425       H  0.33087641  0.22866379  0.30197472     0.07900
H1426       H  0.28868037  0.26005650  0.30219497     0.11600
H1427       H  0.31117219  0.44638146  0.30565251     0.11300
H1428       H  0.35268855  0.41504108  0.30564981     0.07900
C1429       C  0.49229779  0.12437065  0.13213889    -0.11200
C1430       C  0.48360969  0.06766343  0.12859454     0.05900
C1431       C  0.47123120  0.03119017  0.13640497    -0.10000
C1432       C  0.46772327  0.05042743  0.14749584    -0.11600
C1433       C  0.47665235  0.10664150  0.15116834    -0.01400
C1434       C  0.48897484  0.14355717  0.14335152    -0.10500
C1435       C  0.48654189  0.04696469  0.11672418     0.05900
H1436       H  0.46392877  0.98790728  0.13389027     0.07900
H1437       H  0.45810119  0.02058757  0.15323401     0.11300
H1438       H  0.49616951  0.18685787  0.14590900     0.11600
H1439       H  0.50194253  0.15343530  0.12627143     0.07900
C1440       C  0.48170304  0.08663748  0.10783322    -0.11200
C1441       C  0.48279867  0.06644988  0.09668762    -0.10500
C1442       C  0.48892662  0.00603441  0.09409777    -0.01400
C1443       C  0.49419561  0.96644462  0.10298398    -0.11600
C1444       C  0.49292051  0.98666525  0.11419164    -0.10000
H1445       H  0.47642189  0.13299982  0.10951505     0.07900
H1446       H  0.47861907  0.09840346  0.09008264     0.11600
H1447       H  0.49905513  0.91982144  0.10129113     0.11300
H1448       H  0.49689304  0.95514285  0.12089834     0.07900
C1449       C  0.32348149  0.31536175  0.17071790    -0.11200
C1450       C  0.34333023  0.33919964  0.17628131     0.05900
C1451       C  0.34162650  0.39824289  0.18078454    -0.10000
C1452       C  0.32017038  0.43127522  0.18020464    -0.11600
C1453       C  0.29999909  0.40578616  0.17514684    -0.01400
C1454       C  0.30215872  0.34811316  0.17016584    -0.10500
C1455       C  0.36546658  0.30204376  0.17754146     0.05900
H1456       H  0.35656399  0.41800685  0.18516573     0.07900
H1457       H  0.31903708  0.47535601  0.18416849     0.11300
H1458       H  0.28705276  0.32733912  0.16606330     0.11600
H1459       H  0.32431593  0.27092504  0.16688054     0.07900
C1460       C  0.36418265  0.23920128  0.17967606    -0.11200
C1461       C  0.38507951  0.20471075  0.18103516    -0.10500
C1462       C  0.40770396  0.23234905  0.18029219    -0.01400
C1463       C  0.40888133  0.29499952  0.17804804    -0.11600
C1464       C  0.38811888  0.32924379  0.17669235    -0.10000
H1465       H  0.34698734  0.21681602  0.18051012     0.07900
H1466       H  0.38351617  0.15670108  0.18275499     0.11600
H1467       H  0.42596756  0.31803339  0.17733411     0.11300
H1468       H  0.38985528  0.37710117  0.17486520     0.07900
C1469       C  0.47690679  0.21403404  0.23564455    -0.11200
C1470       C  0.47088831  0.16211445  0.24203089     0.05900
C1471       C  0.46222408  0.11104032  0.23638114    -0.10000
C1472       C  0.46040577  0.11103554  0.22466262    -0.11600
C1473       C  0.46736349  0.16194351  0.21822516    -0.01400
C1474       C  0.47528764  0.21383959  0.22386362    -0.10500
C1475       C  0.47462456  0.16024401  0.25444284     0.05900
H1476       H  0.45766174  0.07009701  0.24096089     0.07900
H1477       H  0.45424446  0.07007822  0.22062296     0.11300
H1478       H  0.48059862  0.25387048  0.21917287     0.11600
H1479       H  0.48312246  0.25473630  0.23974471     0.07900
C1480       C  0.49452271  0.18936236  0.25908207    -0.11200
C1481       C  0.49789941  0.18943017  0.27070185    -0.10500
C1482       C  0.48163275  0.15983713  0.27801569    -0.01400
C1483       C  0.46226418  0.12841837  0.27342118    -0.11600
C1484       C  0.45871753  0.12884970  0.26174297    -0.10000
H1485       H  0.50752967  0.21240462  0.25373101     0.07900
H1486       H  0.51307702  0.21382578  0.27400341     0.11600
H1487       H  0.44926002  0.10604938  0.27888083     0.11300
H1488       H  0.44310866  0.10619985  0.25847978     0.07900
C1489       C  0.97598638  0.91157438  0.37906984    -0.11200
C1490       C  0.98395998  0.85306514  0.37602554     0.05900
C1491       C  0.99284602  0.81514647  0.38443747    -0.10000
C1492       C  0.99354503  0.83446369  0.39558656    -0.11600
C1493       C  0.98533052  0.89245620  0.39876346    -0.01400
C1494       C  0.97658540  0.93106194  0.39036035    -0.10500
C1495       C  0.98384610  0.83135802  0.36413721     0.05900
H1496       H  0.99964557  0.77050800  0.38237773     0.07900
H1497       H  0.00057875  0.80329427  0.40175137     0.11300
H1498       H  0.97007967  0.97583945  0.39251183     0.11600
H1499       H  0.96898951  0.94187688  0.37275058     0.07900
C1500       C  0.97762129  0.77106478  0.36158363    -0.11200
C1501       C  0.97904789  0.74947056  0.35047925    -0.10500
C1502       C  0.98685063  0.78762331  0.34168590    -0.01400
C1503       C  0.99282833  0.84803274  0.34425455    -0.11600
C1504       C  0.99127909  0.86962512  0.35531391    -0.10000
H1505       H  0.97157684  0.74054823  0.36819238     0.07900
H1506       H  0.97409622  0.70298982  0.34879066     0.11600
H1507       H  0.99875483  0.87898484  0.33769375     0.11300
H1508       H  0.99648760  0.91593492  0.35699559     0.07900
C1509       C  0.09458563  0.65174013  0.30403127    -0.11200
C1510       C  0.09623825  0.59222193  0.30826344     0.05900
C1511       C  0.07585567  0.56595940  0.31333553    -0.10000
C1512       C  0.05435535  0.59807101  0.31410095    -0.11600
C1513       C  0.05266254  0.65745477  0.30985941    -0.01400
C1514       C  0.07304751  0.68409895  0.30486214    -0.10500
C1515       C  0.11932596  0.55851661  0.30777711     0.05900
H1516       H  0.07658235  0.52079497  0.31687151     0.07900
H1517       H  0.03897530  0.57613874  0.31801722     0.11300
H1518       H  0.07221163  0.72935628  0.30137016     0.11600
H1519       H  0.10987328  0.67307775  0.29992872     0.07900
C1520       C  0.12011939  0.49557922  0.30575884    -0.11200
C1521       C  0.14203231  0.46434098  0.30560609    -0.10500
C1522       C  0.16351731  0.49551058  0.30747252    -0.01400
C1523       C  0.16257481  0.55833444  0.30948033    -0.11600
C1524       C  0.14085188  0.58926510  0.30964414    -0.10000
H1525       H  0.10383513  0.47060360  0.30417817     0.07900
H1526       H  0.14216863  0.41610808  0.30397252     0.11600
H1527       H  0.17871740  0.58408256  0.31097753     0.11300
H1528       H  0.14092704  0.63731833  0.31145022     0.07900
C1529       C  0.98305045  0.62053370  0.10536519    -0.11200
C1530       C  0.98512134  0.58027548  0.11441606     0.05900
C1531       C  0.98800173  0.51800973  0.11213932    -0.10000
C1532       C  0.98834697  0.49644704  0.10101216    -0.11600
C1533       C  0.98551609  0.53674258  0.09198180    -0.01400
C1534       C  0.98315176  0.59907233  0.09431217    -0.10500
C1535       C  0.98285700  0.60290615  0.12617664     0.05900
H1536       H  0.98984389  0.48598879  0.11898625     0.07900
H1537       H  0.99031678  0.44834695  0.09949663     0.11300
H1538       H  0.98113174  0.63162192  0.08756421     0.11600
H1539       H  0.98058082  0.66853617  0.10684696     0.07900
C1540       C  0.99461804  0.65601958  0.12965967    -0.11200
C1541       C  0.99223027  0.67662234  0.14082504    -0.10500
C1542       C  0.97791412  0.64461434  0.14865400    -0.01400
C1543       C  0.96561890  0.59269352  0.14499297    -0.11600
C1544       C  0.96812531  0.57207102  0.13394186    -0.10000
H1545       H  0.00604658  0.68082586  0.12380848     0.07900
H1546       H  0.00197556  0.71657086  0.14338298     0.11600
H1547       H  0.95420033  0.56712994  0.15073392     0.11300
H1548       H  0.95836463  0.53201482  0.13144027     0.07900
C1549       C  0.08219755  0.63048493  0.19083168    -0.11200
C1550       C  0.08984137  0.57543842  0.18610152     0.05900
C1551       C  0.07247728  0.53618736  0.18159257    -0.10000
C1552       C  0.04823193  0.55313124  0.18136174    -0.11600
C1553       C  0.04105557  0.60982143  0.18552228    -0.01400
C1554       C  0.05818926  0.64756237  0.19047733    -0.10500
C1555       C  0.11589631  0.56051888  0.18550333     0.05900
H1556       H  0.07774113  0.49350182  0.17781837     0.07900
H1557       H  0.03538142  0.52342075  0.17744777     0.11300
H1558       H  0.05305053  0.69120789  0.19391216     0.11600
H1559       H  0.09485821  0.66098304  0.19466827     0.07900
C1560       C  0.13317514  0.60590095  0.18328006    -0.11200
C1561       C  0.15758830  0.59146896  0.18223725    -0.10500
C1562       C  0.16519063  0.53127525  0.18327121    -0.01400
C1563       C  0.14799110  0.48627912  0.18577964    -0.11600
C1564       C  0.12371782  0.50069566  0.18690639    -0.10000
H1565       H  0.12777873  0.65244123  0.18201264     0.07900
H1566       H  0.17037523  0.62699775  0.18027896     0.11600
H1567       H  0.15327940  0.43944610  0.18680944     0.11300
H1568       H  0.11106853  0.46486127  0.18886586     0.07900
C1569       C  0.98649681  0.75207317  0.23304156    -0.11200
C1570       C  0.97912496  0.70149603  0.23952209     0.05900
C1571       C  0.96942275  0.65149195  0.23392947    -0.10000
C1572       C  0.96736536  0.65156086  0.22224372    -0.11600
C1573       C  0.97520945  0.70132680  0.21572495    -0.01400
C1574       C  0.98467650  0.75185511  0.22125736    -0.10500
C1575       C  0.98185998  0.70017136  0.25201388     0.05900
H1576       H  0.96395425  0.61133651  0.23853351     0.07900
H1577       H  0.96008353  0.61153886  0.21830076     0.11300
H1578       H  0.99085905  0.79085163  0.21649291     0.11600
H1579       H  0.99364599  0.79198224  0.23706362     0.07900
C1580       C  0.00143327  0.72894342  0.25700933    -0.11200
C1581       C  0.00355479  0.73008411  0.26870471    -0.10500
C1582       C  0.98638158  0.70175620  0.27573589    -0.01400
C1583       C  0.96741089  0.67041774  0.27081816    -0.11600
C1584       C  0.96505411  0.67003027  0.25907080    -0.10000
H1585       H  0.01511979  0.75099034  0.25189590     0.07900
H1586       H  0.01849411  0.75425723  0.27228592     0.11600
H1587       H  0.95377425  0.64894805  0.27605702     0.11300
H1588       H  0.94958894  0.64785842  0.25556746     0.07900
C1589       C  0.71665485  0.78722105  0.35086241    -0.11200
C1590       C  0.72583769  0.82572347  0.35910768     0.05900
C1591       C  0.73407639  0.88364058  0.35582052    -0.10000
C1592       C  0.73356036  0.90195193  0.34447346    -0.11600
C1593       C  0.72473682  0.86270008  0.33621748    -0.01400
C1594       C  0.71606563  0.80542472  0.33961572    -0.10500
C1595       C  0.72630671  0.80554386  0.37109098     0.05900
H1596       H  0.74134347  0.91433309  0.36199557     0.07900
H1597       H  0.74042404  0.94617244  0.34214668     0.11300
H1598       H  0.70888068  0.77400501  0.33354236     0.11600
H1599       H  0.70968200  0.74299626  0.35312306     0.07900
C1600       C  0.71959024  0.84554116  0.37974700    -0.11200
C1601       C  0.71944878  0.82666781  0.39097891    -0.10500
C1602       C  0.72619643  0.76728984  0.39392079    -0.01400
C1603       C  0.73291915  0.72701056  0.38527682    -0.11600
C1604       C  0.73286055  0.74587246  0.37396927    -0.10000
H1605       H  0.71408503  0.89136467  0.37782442     0.07900
H1606       H  0.71419882  0.85915343  0.39739102     0.11600
H1607       H  0.73826987  0.68113232  0.38724579     0.11300
H1608       H  0.73826839  0.71400746  0.36747788     0.07900
C1609       C  0.83727526  0.89590755  0.30085265    -0.11200
C1610       C  0.84615316  0.83765877  0.30283108     0.05900
C1611       C  0.82992378  0.78890919  0.30373650    -0.10000
C1612       C  0.80521063  0.79864991  0.30303210    -0.11600
C1613       C  0.79634159  0.85737310  0.30149296    -0.01400
C1614       C  0.81267284  0.90567870  0.30022168    -0.10500
C1615       C  0.87212838  0.82818442  0.30450524     0.05900
H1616       H  0.83636352  0.74330374  0.30511462     0.07900
H1617       H  0.79307260  0.76068760  0.30403222     0.11300
H1618       H  0.80642036  0.95155367  0.29894677     0.11600
H1619       H  0.84930112  0.93429547  0.30019522     0.07900
C1620       C  0.88947982  0.85658167  0.29752655    -0.11200
C1621       C  0.91393853  0.84481866  0.29895037    -0.10500
C1622       C  0.92123712  0.80444390  0.30734539    -0.01400
C1623       C  0.90394251  0.77856437  0.31462020    -0.11600
C1624       C  0.87970057  0.79039189  0.31323896    -0.10000
H1625       H  0.88408720  0.88607868  0.29073323     0.07900
H1626       H  0.92696361  0.86470967  0.29317356     0.11600
H1627       H  0.90917779  0.74767979  0.32123676     0.11300
H1628       H  0.86681743  0.76935401  0.31894402     0.07900
C1629       C  0.56971592  0.01578990  0.31275725    -0.11200
C1630       C  0.59151091  0.04674427  0.31139013     0.05900
C1631       C  0.59139300  0.11057708  0.31168338    -0.10000
C1632       C  0.56982103  0.14266206  0.31256780    -0.11600
C1633       C  0.54795851  0.11150678  0.31332589    -0.01400
C1634       C  0.54823117  0.04776951  0.31375402    -0.10500
C1635       C  0.61401129  0.01288237  0.30888469     0.05900
H1636       H  0.60798177  0.13583818  0.31097289     0.07900
H1637       H  0.57022363  0.19166294  0.31239033     0.11300
H1638       H  0.53169857  0.02220880  0.31438858     0.11600
H1639       H  0.56909743  0.96682662  0.31252205     0.07900
C1640       C  0.61895270  0.95678024  0.31404424    -0.11200
C1641       C  0.64059436  0.92648783  0.31174059    -0.10500
C1642       C  0.65758383  0.95218831  0.30432276    -0.01400
C1643       C  0.65222525  0.00673731  0.29885815    -0.11600
C1644       C  0.63066501  0.03648496  0.30103838    -0.10000
H1645       H  0.60651098  0.93740203  0.32015311     0.07900
H1646       H  0.64462477  0.88506830  0.31621516     0.11600
H1647       H  0.66514719  0.02738628  0.29311195     0.11300
H1648       H  0.62715980  0.07841920  0.29663543     0.07900
C1649       C  0.72826636  0.00512040  0.12244986    -0.11200
C1650       C  0.73323158  0.06631022  0.11996325     0.05900
C1651       C  0.73661497  0.10678319  0.12887075    -0.10000
C1652       C  0.73569121  0.08642800  0.14000525    -0.11600
C1653       C  0.73118936  0.02503992  0.14255362    -0.01400
C1654       C  0.72714372  0.98470092  0.13364814    -0.10500
C1655       C  0.73632778  0.08726519  0.10813281     0.05900
H1656       H  0.74071994  0.15393399  0.12721253     0.07900
H1657       H  0.73879793  0.11901890  0.14663397     0.11300
H1658       H  0.72348885  0.93735226  0.13531811     0.11600
H1659       H  0.72539142  0.97303190  0.11571080     0.07900
C1660       C  0.75032800  0.05318276  0.10056072    -0.11200
C1661       C  0.75374466  0.07243596  0.08946268    -0.10500
C1662       C  0.74306829  0.12615021  0.08556409    -0.01400
C1663       C  0.72936407  0.16106567  0.09318569    -0.11600
C1664       C  0.72612761  0.14191957  0.10440039    -0.10000
H1665       H  0.75884020  0.01167749  0.10325880     0.07900
H1666       H  0.76453679  0.04438270  0.08387692     0.11600
H1667       H  0.72082825  0.20242753  0.09044345     0.11300
H1668       H  0.71528020  0.16916375  0.11010260     0.07900
C1669       C  0.61971073  0.97718512  0.17940462    -0.11200
C1670       C  0.61083385  0.03438954  0.18244504     0.05900
C1671       C  0.62722664  0.08278577  0.18339787    -0.10000
C1672       C  0.65187275  0.07373406  0.18152575    -0.11600
C1673       C  0.66060685  0.01624366  0.17856155    -0.01400
C1674       C  0.64414566  0.96833927  0.17743989    -0.10500
C1675       C  0.58462076  0.04327226  0.18456918     0.05900
H1676       H  0.62102451  0.12786399  0.18550528     0.07900
H1677       H  0.66404327  0.11153109  0.18244210     0.11300
H1678       H  0.65014464  0.92320769  0.17521962     0.11600
H1679       H  0.60784811  0.93861624  0.17875889     0.07900
C1680       C  0.56746460  0.01139972  0.17828245    -0.11200
C1681       C  0.54292244  0.02308540  0.17975862    -0.10500
C1682       C  0.53512957  0.06735652  0.18742818    -0.01400
C1683       C  0.55205329  0.09703395  0.19407865    -0.11600
C1684       C  0.57647426  0.08474264  0.19275399    -0.10000
H1685       H  0.57299031  0.97961974  0.17180451     0.07900
H1686       H  0.53023191  0.00090329  0.17432798     0.11600
H1687       H  0.54639843  0.13184976  0.19998100     0.11300
H1688       H  0.58899346  0.10889054  0.19797070     0.07900
C1689       C  0.82599624  0.83295848  0.16986360    -0.11200
C1690       C  0.84453944  0.86129207  0.17566100     0.05900
C1691       C  0.84074045  0.92007074  0.17996300    -0.10000
C1692       C  0.81834035  0.94848589  0.17896908    -0.11600
C1693       C  0.79947373  0.91860992  0.17360607    -0.01400
C1694       C  0.80384298  0.86124263  0.16881458    -0.10500
C1695       C  0.86757144  0.82880119  0.17721830     0.05900
H1696       H  0.85480394  0.94306725  0.18444760     0.07900
H1697       H  0.81551279  0.99251277  0.18277552     0.11300
H1698       H  0.78984348  0.83713434  0.16448086     0.11600
H1699       H  0.82856658  0.78844731  0.16620874     0.07900
C1700       C  0.86779764  0.76717326  0.18030642    -0.11200
C1701       C  0.88947154  0.73576535  0.18133140    -0.10500
C1702       C  0.91137735  0.76533574  0.17926512    -0.01400
C1703       C  0.91106676  0.82713978  0.17627341    -0.11600
C1704       C  0.88945469  0.85847008  0.17529117    -0.10000
H1705       H  0.85115573  0.74330841  0.18197246     0.07900
H1706       H  0.88907314  0.68846513  0.18373654     0.11600
H1707       H  0.92759178  0.85147824  0.17459414     0.11300
H1708       H  0.88984055  0.90563551  0.17278641     0.07900
C1709       C  0.71943542  0.87458482  0.25055065    -0.11200
C1710       C  0.72895638  0.92563852  0.24504196     0.05900
C1711       C  0.73796336  0.97332956  0.25166635    -0.10000
C1712       C  0.73715268  0.97024305  0.26348050    -0.11600
C1713       C  0.72752046  0.91915576  0.26894061    -0.01400
C1714       C  0.71878024  0.87133931  0.26230746    -0.10500
C1715       C  0.72868796  0.93009065  0.23248243     0.05900
H1716       H  0.74583906  0.01299352  0.24772246     0.07900
H1717       H  0.74426047  0.00748846  0.26832091     0.11300
H1718       H  0.71117615  0.83118529  0.26620375     0.11600
H1719       H  0.71198121  0.83749526  0.24579136     0.07900
C1720       C  0.73234636  0.87893220  0.22550973    -0.11200
C1721       C  0.73209197  0.88430233  0.21369737    -0.10500
C1722       C  0.72844622  0.94101822  0.20867748    -0.01400
C1723       C  0.72431068  0.99153451  0.21566036    -0.11600
C1724       C  0.72430928  0.98613339  0.22735247    -0.10000
H1725       H  0.73590632  0.83500394  0.22916565     0.07900
H1726       H  0.73541681  0.84470958  0.20852351     0.11600
H1727       H  0.72102900  0.03579880  0.21206260     0.11300
H1728       H  0.72066482  0.02608957  0.23237541     0.07900
loop_ 
_geom_bond_atom_site_label_1 
_geom_bond_atom_site_label_2 
_geom_bond_distance 
_geom_bond_site_symmetry_2 
_ccdc_geom_bond_type 
O1           Ni9   1.945       .  S
O1           C11   1.288       .  A
O2           Ni9   1.948   1_565  S
O2           C12   1.288       .  A
O3           Ni9   1.895       .  S
O3           C13   1.276       .  A
O4           Ni9   1.889       .  S
O4           C14   1.275   1_545  A
O5          Ni10   1.949       .  S
O5           C14   1.288       .  A
O6          Ni10   1.944       .  S
O6           C13   1.288   1_565  A
O7          Ni10   1.891       .  S
O7           C12   1.276       .  A
O8          Ni10   1.890       .  S
O8           C11   1.275   1_565  A
Ni9         Ni10   2.384   1_545  S
C11        C1673   1.485       .  S
C12        C1693   1.485       .  S
C13        C1653   1.486       .  S
C14        C1722   1.482       .  S
O15         Ni23   1.942       .  S
O15          C25   1.288       .  A
O16         Ni23   1.942       .  S
O16          C26   1.286       .  A
O17         Ni23   1.896       .  S
O17          C27   1.276       .  A
O18         Ni23   1.890       .  S
O18          C28   1.275       .  A
O19         Ni24   1.952       .  S
O19          C28   1.290       .  A
O20         Ni24   1.946       .  S
O20          C27   1.288       .  A
O21         Ni24   1.889       .  S
O21          C26   1.275       .  A
O22         Ni24   1.886       .  S
O22          C25   1.274       .  A
Ni23        Ni24   2.386       .  S
C25        C1613   1.478       .  S
C26        C1642   1.470       .  S
C27        C1713   1.487       .  S
C28        C1593   1.488       .  S
O29         Ni37   1.944       .  S
O29          C39   1.287   1_655  A
O30         Ni37   1.941       .  S
O30          C40   1.287       .  A
O31         Ni37   1.891       .  S
O31          C41   1.276       .  A
O32         Ni37   1.892       .  S
O32          C42   1.276       .  A
O33         Ni38   1.943       .  S
O33          C42   1.288       .  A
O34         Ni38   1.946       .  S
O34          C41   1.288       .  A
O35         Ni38   1.900       .  S
O35          C40   1.277       .  A
O36         Ni38   1.893   1_455  S
O36          C39   1.276       .  A
Ni37        Ni38   2.385       .  S
C39        C1553   1.478       .  S
C40        C1702   1.486       .  S
C41        C1542   1.485       .  S
C42        C1573   1.484       .  S
O43         Ni51   1.940       .  S
O43          C53   1.286       .  A
O44         Ni51   1.938   1_455  S
O44          C54   1.287       .  A
O45         Ni51   1.892       .  S
O45          C55   1.275       .  A
O46         Ni51   1.901       .  S
O46          C56   1.278       .  A
O47         Ni52   1.940       .  S
O47          C56   1.287       .  A
O48         Ni52   1.943       .  S
O48          C55   1.287       .  A
O49         Ni52   1.897   1_455  S
O49          C54   1.276       .  A
O50         Ni52   1.887       .  S
O50          C53   1.275       .  A
Ni51        Ni52   2.387       .  S
C53        C1622   1.472       .  S
C54        C1513   1.481       .  S
C55        C1582   1.477       .  S
C56        C1502   1.487       .  S
O57         Ni65   1.942       .  S
O57          C67   1.288       .  A
O58         Ni65   1.947       .  S
O58          C68   1.289       .  A
O59         Ni65   1.895       .  S
O59          C69   1.276       .  A
O60         Ni65   1.889       .  S
O60          C70   1.274       .  A
O61         Ni66   1.946       .  S
O61          C70   1.287       .  A
O62         Ni66   1.947       .  S
O62          C69   1.289       .  A
O63         Ni66   1.891       .  S
O63          C68   1.276       .  A
O64         Ni66   1.897       .  S
O64          C67   1.277       .  A
Ni65        Ni66   2.385       .  S
C67        C1473   1.485       .  S
C68        C1433   1.487       .  S
C69        C1462   1.488       .  S
C70        C1682   1.472       .  S
O71         Ni79   1.939       .  S
O71          C81   1.286       .  A
O72         Ni79   1.936       .  S
O72          C82   1.286       .  A
O73         Ni79   1.896       .  S
O73          C83   1.276       .  A
O74         Ni79   1.898       .  S
O74          C84   1.277       .  A
O75         Ni80   1.938       .  S
O75          C84   1.286       .  A
O76         Ni80   1.940       .  S
O76          C83   1.287       .  A
O77         Ni80   1.896       .  S
O77          C82   1.276       .  A
O78         Ni80   1.885       .  S
O78          C81   1.275       .  A
Ni79        Ni80   2.386       .  S
C81        C1413   1.475       .  S
C82        C1633   1.481       .  S
C83        C1482   1.479       .  S
C84        C1393   1.484       .  S
O85         Ni93   1.948       .  S
O85          C95   1.289       .  A
O86         Ni93   1.950       .  S
O86          C96   1.289       .  A
O87         Ni93   1.889       .  S
O87          C97   1.275       .  A
O88         Ni93   1.884       .  S
O88          C98   1.274       .  A
O89         Ni94   1.952       .  S
O89          C98   1.289       .  A
O90         Ni94   1.953       .  S
O90          C97   1.289       .  A
O91         Ni94   1.892       .  S
O91          C96   1.275       .  A
O92         Ni94   1.892       .  S
O92          C95   1.275       .  A
Ni93        Ni94   2.384       .  S
C95        C1562   1.484       .  S
C96        C1453   1.485       .  S
C97        C1362   1.487       .  S
C98        C1382   1.484       .  S
O99        Ni107   1.945       .  S
O99         C109   1.288       .  A
O100       Ni107   1.944       .  S
O100        C110   1.288       .  A
O101       Ni107   1.888       .  S
O101        C111   1.275       .  A
O102       Ni107   1.892       .  S
O102        C112   1.276       .  A
O103       Ni108   1.948       .  S
O103        C112   1.288       .  A
O104       Ni108   1.946       .  S
O104        C111   1.288       .  A
O105       Ni108   1.889       .  S
O105        C110   1.275       .  A
O106       Ni108   1.882       .  S
O106        C109   1.274       .  A
Ni107      Ni108   2.384       .  S
C109       C1422   1.480       .  S
C110       C1522   1.484       .  S
C111       C1373   1.481       .  S
C112       C1342   1.487       .  S
O113       Ni121   1.939       .  S
O113        C123   1.286       .  A
O114       Ni121   1.939       .  S
O114        C124   1.285       .  A
O115       Ni121   1.897       .  S
O115        C125   1.277       .  A
O116       Ni121   1.894       .  S
O116        C126   1.277       .  A
O117       Ni122   1.941       .  S
O117        C126   1.287       .  A
O118       Ni122   1.934       .  S
O118        C125   1.286       .  A
O119       Ni122   1.891       .  S
O119        C124   1.275       .  A
O120       Ni122   1.887       .  S
O120        C123   1.275       .  A
Ni121      Ni122   2.388       .  S
C123       C1273   1.476       .  S
C124       C1293   1.469       .  S
C125       C1313   1.478       .  S
C126       C1253   1.484       .  S
O127       Ni135   1.946       .  S
O127        C137   1.288       .  A
O128       Ni135   1.945       .  S
O128        C138   1.288   1_565  A
O129       Ni135   1.891       .  S
O129        C139   1.275       .  A
O130       Ni135   1.890       .  S
O130        C140   1.275   1_565  A
O131       Ni136   1.944       .  S
O131        C140   1.288       .  A
O132       Ni136   1.947       .  S
O132        C139   1.289   1_545  A
O133       Ni136   1.889       .  S
O133        C138   1.275       .  A
O134       Ni136   1.884       .  S
O134        C137   1.274   1_545  A
Ni135      Ni136   2.386   1_565  S
C137       C1322   1.480       .  S
C138       C1193   1.479       .  S
C139       C1242   1.484       .  S
C140       C1213   1.482       .  S
O141       Ni149   1.935       .  S
O141        C151   1.285       .  A
O142       Ni149   1.932       .  S
O142        C152   1.284       .  A
O143       Ni149   1.898       .  S
O143        C153   1.277       .  A
O144       Ni149   1.902       .  S
O144        C154   1.278       .  A
O145       Ni150   1.941       .  S
O145        C154   1.287       .  A
O146       Ni150   1.938       .  S
O146        C153   1.286       .  A
O147       Ni150   1.892       .  S
O147        C152   1.275       .  A
O148       Ni150   1.890       .  S
O148        C151   1.275       .  A
Ni149      Ni150   2.387       .  S
C151       C1282   1.471       .  S
C152       C1162   1.464       .  S
C153       C1173   1.477       .  S
C154       C1133   1.486       .  S
O155       Ni163   1.940       .  S
O155        C165   1.286       .  A
O156       Ni163   1.941       .  S
O156        C166   1.287       .  A
O157       Ni163   1.891       .  S
O157        C167   1.276       .  A
O158       Ni163   1.892       .  S
O158        C168   1.276       .  A
O159       Ni164   1.941       .  S
O159        C168   1.287       .  A
O160       Ni164   1.945       .  S
O160        C167   1.288       .  A
O161       Ni164   1.899       .  S
O161        C166   1.277       .  A
O162       Ni164   1.888       .  S
O162        C165   1.275       .  A
Ni163      Ni164   2.385       .  S
C165       C1113   1.472       .  S
C166       C1233   1.486       .  S
C167       C1093   1.484       .  S
C168       C1182   1.484       .  S
O169       Ni177   1.938       .  S
O169        C179   1.287       .  A
O170       Ni177   1.942       .  S
O170        C180   1.287       .  A
O171       Ni177   1.896       .  S
O171        C181   1.277       .  A
O172       Ni177   1.893       .  S
O172        C182   1.276       .  A
O173       Ni178   1.947       .  S
O173        C182   1.288       .  A
O174       Ni178   1.947       .  S
O174        C181   1.288       .  A
O175       Ni178   1.891       .  S
O175        C180   1.276       .  A
O176       Ni178   1.890       .  S
O176        C179   1.275       .  A
Ni177      Ni178   2.385       .  S
C179       C1122   1.477       .  S
C180       C1053   1.478       .  S
C181       C1033   1.488       .  S
C182       C1073   1.485       .  S
O183       Ni191   1.940       .  S
O183        C193   1.287       .  A
O184       Ni191   1.935       .  S
O184        C194   1.286       .  A
O185       Ni191   1.899       .  S
O185        C195   1.277       .  A
O186       Ni191   1.899       .  S
O186        C196   1.277       .  A
O187       Ni192   1.943       .  S
O187        C196   1.286       .  A
O188       Ni192   1.940       .  S
O188        C195   1.287       .  A
O189       Ni192   1.891       .  S
O189        C194   1.276       .  A
O190       Ni192   1.881       .  S
O190        C193   1.274       .  A
Ni191      Ni192   2.386       .  S
C193       C1013   1.476       .  S
C194       C1153   1.478       .  S
C195       C1082   1.484       .  S
C196        C993   1.478       .  S
O197       Ni205   1.943       .  S
O197        C207   1.287   1_655  A
O198       Ni205   1.943       .  S
O198        C208   1.288       .  A
O199       Ni205   1.887       .  S
O199        C209   1.275       .  A
O200       Ni205   1.889       .  S
O200        C210   1.275       .  A
O201       Ni206   1.946       .  S
O201        C210   1.288       .  A
O202       Ni206   1.951       .  S
O202        C209   1.289       .  A
O203       Ni206   1.894       .  S
O203        C208   1.276       .  A
O204       Ni206   1.887   1_455  S
O204        C207   1.274       .  A
Ni205      Ni206   2.385       .  S
C207       C1222   1.471       .  S
C208       C1062   1.485       .  S
C209        C953   1.485       .  S
C210        C973   1.485       .  S
O211       Ni219   1.941       .  S
O211        C221   1.287       .  A
O212       Ni219   1.940   1_455  S
O212        C222   1.287       .  A
O213       Ni219   1.889       .  S
O213        C223   1.274       .  A
O214       Ni219   1.895       .  S
O214        C224   1.276       .  A
O215       Ni220   1.946       .  S
O215        C224   1.289       .  A
O216       Ni220   1.948       .  S
O216        C223   1.288       .  A
O217       Ni220   1.892   1_455  S
O217        C222   1.276       .  A
O218       Ni220   1.881       .  S
O218        C221   1.273       .  A
Ni219      Ni220   2.386       .  S
C221       C1022   1.471       .  S
C222       C1302   1.482       .  S
C223        C982   1.478       .  S
C224        C942   1.488       .  S
O225       Ni233   1.941       .  S
O225        C235   1.286       .  A
O226       Ni233   1.941       .  S
O226        C236   1.287       .  A
O227       Ni233   1.895       .  S
O227        C237   1.276       .  A
O228       Ni233   1.893       .  S
O228        C238   1.276       .  A
O229       Ni234   1.942       .  S
O229        C238   1.287       .  A
O230       Ni234   1.947       .  S
O230        C237   1.289       .  A
O231       Ni234   1.893       .  S
O231        C236   1.276       .  A
O232       Ni234   1.886       .  S
O232        C235   1.274       .  A
Ni233      Ni234   2.385       .  S
C235        C873   1.470       .  S
C236        C902   1.483       .  S
C237       C1042   1.488       .  S
C238        C913   1.484       .  S
O239       Ni247   1.941       .  S
O239        C249   1.287       .  A
O240       Ni247   1.939       .  S
O240        C250   1.287       .  A
O241       Ni247   1.891       .  S
O241        C251   1.275       .  A
O242       Ni247   1.898       .  S
O242        C252   1.277       .  A
O243       Ni248   1.943       .  S
O243        C252   1.288       .  A
O244       Ni248   1.944       .  S
O244        C251   1.288       .  A
O245       Ni248   1.892       .  S
O245        C250   1.275       .  A
O246       Ni248   1.883       .  S
O246        C249   1.274       .  A
Ni247      Ni248   2.386       .  S
C249        C833   1.471       .  S
C250        C853   1.481       .  S
C251        C922   1.478       .  S
C252       C1602   1.487       .  S
O253       Ni261   1.940       .  S
O253        C263   1.287       .  A
O254       Ni261   1.940   1_455  S
O254        C264   1.286       .  A
O255       Ni261   1.887       .  S
O255        C265   1.275       .  A
O256       Ni261   1.887       .  S
O256        C266   1.275       .  A
O257       Ni262   1.953       .  S
O257        C266   1.289       .  A
O258       Ni262   1.947       .  S
O258        C265   1.289       .  A
O259       Ni262   1.890   1_445  S
O259        C264   1.275   1_545  A
O260       Ni262   1.887       .  S
O260        C263   1.275       .  A
Ni261      Ni262   2.385       .  S
C263        C842   1.477       .  S
C264        C793   1.477       .  S
C265        C813   1.482       .  S
C266       C1493   1.489       .  S
O267       Ni275   1.942   1_455  S
O267        C277   1.288       .  A
O268       Ni275   1.944       .  S
O268        C278   1.287   1_545  A
O269       Ni275   1.891       .  S
O269        C279   1.275       .  A
O270       Ni275   1.884       .  S
O270        C280   1.274   1_545  A
O271       Ni276   1.948       .  S
O271        C280   1.288       .  A
O272       Ni276   1.947       .  S
O272        C279   1.289   1_565  A
O273       Ni276   1.889       .  S
O273        C278   1.275       .  A
O274       Ni276   1.887   1_455  S
O274        C277   1.275   1_565  A
Ni275      Ni276   2.385   1_545  S
C277        C773   1.480       .  S
C278        C893   1.480       .  S
C279        C962   1.486       .  S
C280        C822   1.479       .  S
O281       Ni289   1.939       .  S
O281        C291   1.287       .  A
O282       Ni289   1.937       .  S
O282        C292   1.286       .  A
O283       Ni289   1.893       .  S
O283        C293   1.276       .  A
O284       Ni289   1.896       .  S
O284        C294   1.276       .  A
O285       Ni290   1.944       .  S
O285        C294   1.288       .  A
O286       Ni290   1.944       .  S
O286        C293   1.287       .  A
O287       Ni290   1.893       .  S
O287        C292   1.276       .  A
O288       Ni290   1.884       .  S
O288        C291   1.274       .  A
Ni289      Ni290   2.386       .  S
C291        C733   1.474       .  S
C292        C802   1.476       .  S
C293        C753   1.478       .  S
C294       C1333   1.486       .  S
O295       Ni303   1.937       .  S
O295        C305   1.285       .  A
O296       Ni303   1.935       .  S
O296        C306   1.286       .  A
O297       Ni303   1.895       .  S
O297        C307   1.277       .  A
O298       Ni303   1.898       .  S
O298        C308   1.277       .  A
O299       Ni304   1.939       .  S
O299        C308   1.287       .  A
O300       Ni304   1.942       .  S
O300        C307   1.287       .  A
O301       Ni304   1.897       .  S
O301        C306   1.277       .  A
O302       Ni304   1.890       .  S
O302        C305   1.275       .  A
Ni303      Ni304   2.387       .  S
C305        C782   1.468       .  S
C306        C722   1.481       .  S
C307       C1202   1.481       .  S
C308        C762   1.485       .  S
O309       Ni317   1.942       .  S
O309        C319   1.287       .  A
O310       Ni317   1.945       .  S
O310        C320   1.288       .  A
O311       Ni317   1.893       .  S
O311        C321   1.276       .  A
O312       Ni317   1.887       .  S
O312        C322   1.275       .  A
O313       Ni318   1.942       .  S
O313        C322   1.287       .  A
O314       Ni318   1.941       .  S
O314        C321   1.287       .  A
O315       Ni318   1.887       .  S
O315        C320   1.275       .  A
O316       Ni318   1.885       .  S
O316        C319   1.275       .  A
Ni317      Ni318   2.386       .  S
C319        C882   1.478       .  S
C320        C713   1.482       .  S
C321       C1102   1.483       .  S
C322        C693   1.479       .  S
O323       Ni331   1.941       .  S
O323        C333   1.287       .  A
O324       Ni331   1.940       .  S
O324        C334   1.286       .  A
O325       Ni331   1.895       .  S
O325        C335   1.276       .  A
O326       Ni331   1.895       .  S
O326        C336   1.277       .  A
O327       Ni332   1.940       .  S
O327        C336   1.287       .  A
O328       Ni332   1.935       .  S
O328        C335   1.286       .  A
O329       Ni332   1.888       .  S
O329        C334   1.275       .  A
O330       Ni332   1.882       .  S
O330        C333   1.274       .  A
Ni331      Ni332   2.387       .  S
C333        C742   1.477       .  S
C334        C862   1.469       .  S
C335        C702   1.476       .  S
C336       C1402   1.484       .  S
O337       Ni345   1.945       .  S
O337        C347   1.288       .  A
O338       Ni345   1.943       .  S
O338        C348   1.287       .  A
O339       Ni345   1.891       .  S
O339        C349   1.275       .  A
O340       Ni345   1.897       .  S
O340        C350   1.277       .  A
O341       Ni346   1.939       .  S
O341        C350   1.287       .  A
O342       Ni346   1.939       .  S
O342        C349   1.287       .  A
O343       Ni346   1.890       .  S
O343        C348   1.276       .  A
O344       Ni346   1.882       .  S
O344        C347   1.274       .  A
Ni345      Ni346   2.386       .  S
C347        C642   1.478       .  S
C348        C653   1.481       .  S
C349        C673   1.475       .  S
C350       C1262   1.484       .  S
O351       Ni359   1.939       .  S
O351        C361   1.286       .  A
O352       Ni359   1.939       .  S
O352        C362   1.287       .  A
O353       Ni359   1.891       .  S
O353        C363   1.275       .  A
O354       Ni359   1.890       .  S
O354        C364   1.276       .  A
O355       Ni360   1.944       .  S
O355        C364   1.288       .  A
O356       Ni360   1.949       .  S
O356        C363   1.289       .  A
O357       Ni360   1.897       .  S
O357        C362   1.277       .  A
O358       Ni360   1.889       .  S
O358        C361   1.274       .  A
Ni359      Ni360   2.386       .  S
C361        C593   1.468       .  S
C362        C613   1.484       .  S
C363       C1353   1.487       .  S
C364        C682   1.483       .  S
O365       Ni373   1.944       .  S
O365        C375   1.288       .  A
O366       Ni373   1.938       .  S
O366        C376   1.287       .  A
O367       Ni373   1.890       .  S
O367        C377   1.275       .  A
O368       Ni373   1.897       .  S
O368        C378   1.276       .  A
O369       Ni374   1.944       .  S
O369        C378   1.287       .  A
O370       Ni374   1.945       .  S
O370        C377   1.288       .  A
O371       Ni374   1.894       .  S
O371        C376   1.276       .  A
O372       Ni374   1.881       .  S
O372        C375   1.274       .  A
Ni373      Ni374   2.387       .  S
C375        C533   1.474       .  S
C376        C553   1.481       .  S
C377        C573   1.476       .  S
C378       C1002   1.480       .  S
O379       Ni387   1.938       .  S
O379        C389   1.287       .  A
O380       Ni387   1.943       .  S
O380        C390   1.288       .  A
O381       Ni387   1.897       .  S
O381        C391   1.277       .  A
O382       Ni387   1.890       .  S
O382        C392   1.275       .  A
O383       Ni388   1.937       .  S
O383        C392   1.285       .  A
O384       Ni388   1.937       .  S
O384        C391   1.286       .  A
O385       Ni388   1.893       .  S
O385        C390   1.276       .  A
O386       Ni388   1.897       .  S
O386        C389   1.277       .  A
Ni387      Ni388   2.386       .  S
C389        C582   1.484       .  S
C390       C1662   1.485       .  S
C391        C522   1.483       .  S
C392        C502   1.466       .  S
O393       Ni401   1.938       .  S
O393        C403   1.287       .  A
O394       Ni401   1.941       .  S
O394        C404   1.286       .  A
O395       Ni401   1.899       .  S
O395        C405   1.277       .  A
O396       Ni401   1.896       .  S
O396        C406   1.276       .  A
O397       Ni402   1.946       .  S
O397        C406   1.287       .  A
O398       Ni402   1.941       .  S
O398        C405   1.288       .  A
O399       Ni402   1.885       .  S
O399        C404   1.274       .  A
O400       Ni402   1.891       .  S
O400        C403   1.276       .  A
Ni401      Ni402   2.387       .  S
C403        C633   1.480       .  S
C404        C562   1.468       .  S
C405        C473   1.486       .  S
C406       C1142   1.477       .  S
O407       Ni415   1.940       .  S
O407        C417   1.287   1_545  A
O408       Ni415   1.939   1_565  S
O408        C418   1.287       .  A
O409       Ni415   1.898       .  S
O409        C419   1.277   1_545  A
O410       Ni415   1.891   1_565  S
O410        C420   1.276       .  A
O411       Ni416   1.946       .  S
O411        C420   1.287       .  A
O412       Ni416   1.944       .  S
O412        C419   1.288       .  A
O413       Ni416   1.896       .  S
O413        C418   1.277       .  A
O414       Ni416   1.889       .  S
O414        C417   1.276       .  A
Ni415      Ni416   2.385   1_545  S
C417        C493   1.481   1_565  S
C418        C622   1.483       .  S
C419       C1442   1.487   1_565  S
C420        C482   1.478       .  S
O421       Ni429   1.946       .  S
O421        C431   1.288       .  A
O422       Ni429   1.944   1_455  S
O422        C432   1.287       .  A
O423       Ni429   1.894       .  S
O423        C433   1.276       .  A
O424       Ni429   1.895       .  S
O424        C434   1.276       .  A
O425       Ni430   1.948       .  S
O425        C434   1.289       .  A
O426       Ni430   1.941       .  S
O426        C433   1.287       .  A
O427       Ni430   1.890   1_455  S
O427        C432   1.275       .  A
O428       Ni430   1.880       .  S
O428        C431   1.274       .  A
Ni429      Ni430   2.386       .  S
C431        C542   1.478       .  S
C432        C662   1.476       .  S
C433        C462   1.479       .  S
C434        C933   1.489       .  S
O435       Ni443   1.942   1_455  S
O435        C445   1.287       .  A
O436       Ni443   1.943       .  S
O436        C446   1.287       .  A
O437       Ni443   1.892       .  S
O437        C447   1.276       .  A
O438       Ni443   1.886       .  S
O438        C448   1.275       .  A
O439       Ni444   1.949       .  S
O439        C448   1.288       .  A
O440       Ni444   1.946       .  S
O440        C447   1.288       .  A
O441       Ni444   1.889       .  S
O441        C446   1.275       .  A
O442       Ni444   1.887   1_455  S
O442        C445   1.275       .  A
Ni443      Ni444   2.385       .  S
C445        C602   1.480       .  S
C446        C513   1.480       .  S
C447       C1533   1.484       .  S
C448        C453   1.484       .  S
C449        C450   1.401       .  A
C449        C454   1.390       .  A
C449        H459   1.083       .  S
C450        C455   1.490   1_554  S
C450        C451   1.412       .  A
C451        C452   1.406       .  A
C451        H456   1.082       .  S
C452        C453   1.404       .  A
C452        H457   1.083       .  S
C453        C454   1.409       .  A
C454        H458   1.083       .  S
C455        C460   1.411       .  A
C455        C464   1.403       .  A
C460        C461   1.401       .  A
C460        H465   1.082       .  S
C461        C462   1.401       .  A
C461        H466   1.083       .  S
C462        C463   1.408   1_655  A
C463        C464   1.396   1_455  A
C463        H467   1.083       .  S
C464        H468   1.083   1_655  S
C469        C470   1.403       .  A
C469        C474   1.397       .  A
C469        H479   1.083       .  S
C470        C475   1.492   1_556  S
C470        C471   1.412       .  A
C471        C472   1.402       .  A
C471        H476   1.082   1_565  S
C472        C473   1.403       .  A
C472        H477   1.083   1_565  S
C473        C474   1.410       .  A
C474        H478   1.083       .  S
C475        C480   1.403       .  A
C475        C484   1.413       .  A
C480        C481   1.392       .  A
C480        H485   1.083       .  S
C481        C482   1.404       .  A
C481        H486   1.084       .  S
C482        C483   1.403       .  A
C483        C484   1.406       .  A
C483        H487   1.083       .  S
C484        H488   1.082       .  S
C489        C490   1.411       .  A
C489        C494   1.402       .  A
C489        H499   1.083       .  S
C490        C495   1.485       .  S
C490        C491   1.401   1_545  A
C491        C492   1.392       .  A
C491        H496   1.083       .  S
C492        C493   1.408   1_565  A
C492        H497   1.083       .  S
C493        C494   1.403       .  A
C494        H498   1.083       .  S
C495        C500   1.404       .  A
C495        C504   1.411       .  A
C500        C501   1.394       .  A
C500        H505   1.083       .  S
C501        C502   1.403       .  A
C501        H506   1.084       .  S
C502        C503   1.399       .  A
C503        C504   1.399       .  A
C503        H507   1.083       .  S
C504        H508   1.083   1_545  S
C509        C510   1.401       .  A
C509        C514   1.393       .  A
C509        H519   1.083       .  S
C510        C515   1.485       .  S
C510        C511   1.410       .  A
C511        C512   1.403       .  A
C511        H516   1.083       .  S
C512        C513   1.403       .  A
C512        H517   1.083       .  S
C513        C514   1.408       .  A
C514        H518   1.083       .  S
C515        C520   1.410       .  A
C515        C524   1.401       .  A
C520        C521   1.401       .  A
C520        H525   1.083       .  S
C521        C522   1.404       .  A
C521        H526   1.083       .  S
C522        C523   1.409       .  A
C523        C524   1.395       .  A
C523        H527   1.083       .  S
C524        H528   1.083       .  S
C529        C530   1.401       .  A
C529        C534   1.390       .  A
C529        H539   1.083       .  S
C530        C535   1.484       .  S
C530        C531   1.411       .  A
C531        C532   1.402       .  A
C531        H536   1.083       .  S
C532        C533   1.402       .  A
C532        H537   1.083       .  S
C533        C534   1.406       .  A
C534        H538   1.083       .  S
C535        C540   1.412       .  A
C535        C544   1.399       .  A
C540        C541   1.402       .  A
C540        H545   1.083       .  S
C541        C542   1.401       .  A
C541        H546   1.083       .  S
C542        C543   1.409       .  A
C543        C544   1.390       .  A
C543        H547   1.083       .  S
C544        H548   1.083       .  S
C549        C550   1.402       .  A
C549        C554   1.394       .  A
C549        H559   1.082   1_545  S
C550        C555   1.488       .  S
C550        C551   1.411       .  A
C551        C552   1.400       .  A
C551        H556   1.082       .  S
C552        C553   1.402       .  A
C552        H557   1.083       .  S
C553        C554   1.409       .  A
C554        H558   1.083       .  S
C555        C560   1.412   1_545  A
C555        C564   1.403       .  A
C560        C561   1.402       .  A
C560        H565   1.082       .  S
C561        C562   1.400       .  A
C561        H566   1.083       .  S
C562        C563   1.403   1_565  A
C563        C564   1.391       .  A
C563        H567   1.084       .  S
C564        H568   1.083       .  S
C569        C570   1.404       .  A
C569        C574   1.395       .  A
C569        H579   1.083       .  S
C570        C575   1.491       .  S
C570        C571   1.412       .  A
C571        C572   1.402       .  A
C571        H576   1.082       .  S
C572        C573   1.401       .  A
C572        H577   1.083       .  S
C573        C574   1.406       .  A
C574        H578   1.083       .  S
C575        C580   1.411   1_556  A
C575        C584   1.403   1_556  A
C580        C581   1.402       .  A
C580        H585   1.082   1_554  S
C581        C582   1.404       .  A
C581        H586   1.083       .  S
C582        C583   1.408       .  A
C583        C584   1.394       .  A
C583        H587   1.083       .  S
C584        H588   1.082   1_554  S
C589        C590   1.404       .  A
C589        C594   1.395       .  A
C589        H599   1.083       .  S
C590        C595   1.487       .  S
C590        C591   1.411       .  A
C591        C592   1.399       .  A
C591        H596   1.082       .  S
C592        C593   1.399       .  A
C592        H597   1.083       .  S
C593        C594   1.404       .  A
C594        H598   1.084       .  S
C595        C600   1.412       .  A
C595        C604   1.401       .  A
C600        C601   1.403       .  A
C600        H605   1.082       .  S
C601        C602   1.403       .  A
C601        H606   1.083       .  S
C602        C603   1.408       .  A
C603        C604   1.390       .  A
C603        H607   1.083       .  S
C604        H608   1.083       .  S
C609        C610   1.402       .  A
C609        C614   1.395       .  A
C609        H619   1.083       .  S
C610        C615   1.489       .  S
C610        C611   1.410       .  A
C611        C612   1.402       .  A
C611        H616   1.083       .  S
C612        C613   1.403       .  A
C612        H617   1.083       .  S
C613        C614   1.409       .  A
C614        H618   1.083       .  S
C615        C620   1.410       .  A
C615        C624   1.403       .  A
C620        C621   1.403       .  A
C620        H625   1.083       .  S
C621        C622   1.404       .  A
C621        H626   1.083       .  S
C622        C623   1.408       .  A
C623        C624   1.395       .  A
C623        H627   1.083       .  S
C624        H628   1.083       .  S
C629        C630   1.410       .  A
C629        C634   1.400       .  A
C629        H639   1.083       .  S
C630        C635   1.483       .  S
C630        C631   1.400       .  A
C631        C632   1.393       .  A
C631        H636   1.083       .  S
C632        C633   1.409       .  A
C632        H637   1.083       .  S
C633        C634   1.402       .  A
C634        H638   1.083       .  S
C635        C640   1.400       .  A
C635        C644   1.410       .  A
C640        C641   1.390       .  A
C640        H645   1.083       .  S
C641        C642   1.408       .  A
C641        H646   1.083       .  S
C642        C643   1.403       .  A
C643        C644   1.403       .  A
C643        H647   1.083       .  S
C644        H648   1.083       .  S
C649        C650   1.402       .  A
C649        C654   1.392       .  A
C649        H659   1.082       .  S
C650        C655   1.491       .  S
C650        C651   1.413       .  A
C651        C652   1.404       .  A
C651        H656   1.082       .  S
C652        C653   1.402       .  A
C652        H657   1.083       .  S
C653        C654   1.408       .  A
C654        H658   1.083       .  S
C655        C660   1.413       .  A
C655        C664   1.403       .  A
C660        C661   1.403       .  A
C660        H665   1.082       .  S
C661        C662   1.400       .  A
C661        H666   1.083       .  S
C662        C663   1.406       .  A
C663        C664   1.394       .  A
C663        H667   1.084       .  S
C664        H668   1.082       .  S
C669        C670   1.411       .  A
C669        C674   1.401       .  A
C669        H679   1.082       .  S
C670        C675   1.487       .  S
C670        C671   1.402       .  A
C671        C672   1.394       .  A
C671        H676   1.083       .  S
C672        C673   1.406       .  A
C672        H677   1.083       .  S
C673        C674   1.401       .  A
C674        H678   1.083       .  S
C675        C680   1.400   1_556  A
C675        C684   1.411   1_556  A
C680        C681   1.391       .  A
C680        H685   1.083   1_554  S
C681        C682   1.409       .  A
C681        H686   1.083       .  S
C682        C683   1.404       .  A
C683        C684   1.404       .  A
C683        H687   1.083       .  S
C684        H688   1.083       .  S
C689        C690   1.412       .  A
C689        C694   1.403       .  A
C689        H699   1.082       .  S
C690        C695   1.487       .  S
C690        C691   1.401       .  A
C691        C692   1.390       .  A
C691        H696   1.083       .  S
C692        C693   1.407       .  A
C692        H697   1.083       .  S
C693        C694   1.402       .  A
C694        H698   1.083       .  S
C695        C700   1.403       .  A
C695        C704   1.411       .  A
C700        C701   1.394       .  A
C700        H705   1.083       .  S
C701        C702   1.407       .  A
C701        H706   1.083       .  S
C702        C703   1.401       .  A
C703        C704   1.399       .  A
C703        H707   1.083       .  S
C704        H708   1.082       .  S
C709        C710   1.411       .  A
C709        C714   1.403       .  A
C709        H719   1.083       .  S
C710        C715   1.487       .  S
C710        C711   1.401       .  A
C711        C712   1.392       .  A
C711        H716   1.083       .  S
C712        C713   1.409       .  A
C712        H717   1.083       .  S
C713        C714   1.403       .  A
C714        H718   1.083       .  S
C715        C720   1.402       .  A
C715        C724   1.410       .  A
C720        C721   1.395       .  A
C720        H725   1.083       .  S
C721        C722   1.408       .  A
C721        H726   1.083       .  S
C722        C723   1.403       .  A
C723        C724   1.401       .  A
C723        H727   1.083       .  S
C724        H728   1.083       .  S
C729        C730   1.401       .  A
C729        C734   1.390       .  A
C729        H739   1.083       .  S
C730        C735   1.481       .  S
C730        C731   1.410       .  A
C731        C732   1.401       .  A
C731        H736   1.083       .  S
C732        C733   1.402       .  A
C732        H737   1.083       .  S
C733        C734   1.407       .  A
C734        H738   1.083       .  S
C735        C740   1.410       .  A
C735        C744   1.399       .  A
C740        C741   1.401       .  A
C740        H745   1.083       .  S
C741        C742   1.402       .  A
C741        H746   1.083       .  S
C742        C743   1.409       .  A
C743        C744   1.390       .  A
C743        H747   1.083       .  S
C744        H748   1.083       .  S
C749        C750   1.404       .  A
C749        C754   1.394       .  A
C749        H759   1.083       .  S
C750        C755   1.492       .  S
C750        C751   1.412       .  A
C751        C752   1.404       .  A
C751        H756   1.082       .  S
C752        C753   1.402       .  A
C752        H757   1.083       .  S
C753        C754   1.406       .  A
C754        H758   1.083       .  S
C755        C760   1.412       .  A
C755        C764   1.403       .  A
C760        C761   1.402       .  A
C760        H765   1.082       .  S
C761        C762   1.403       .  A
C761        H766   1.083       .  S
C762        C763   1.409       .  A
C763        C764   1.396       .  A
C763        H767   1.083       .  S
C764        H768   1.082       .  S
C769        C770   1.401       .  A
C769        C774   1.392   1_545  A
C769        H779   1.083   1_545  S
C770        C775   1.485       .  S
C770        C771   1.411       .  A
C771        C772   1.401       .  A
C771        H776   1.082       .  S
C772        C773   1.402       .  A
C772        H777   1.083       .  S
C773        C774   1.409   1_545  A
C774        H778   1.083       .  S
C775        C780   1.411       .  A
C775        C784   1.403       .  A
C780        C781   1.400       .  A
C780        H785   1.082       .  S
C781        C782   1.400       .  A
C781        H786   1.083       .  S
C782        C783   1.404       .  A
C783        C784   1.393       .  A
C783        H787   1.084       .  S
C784        H788   1.083       .  S
C789        C790   1.413   1_565  A
C789        C794   1.403       .  A
C789        H799   1.082       .  S
C790        C795   1.490       .  S
C790        C791   1.403       .  A
C791        C792   1.391       .  A
C791        H796   1.082       .  S
C792        C793   1.406   1_545  A
C792        H797   1.083       .  S
C793        C794   1.402       .  A
C794        H798   1.083       .  S
C795        C800   1.404       .  A
C795        C804   1.412       .  A
C800        C801   1.394       .  A
C800        H805   1.082       .  S
C801        C802   1.406       .  A
C801        H806   1.083       .  S
C802        C803   1.400       .  A
C803        C804   1.400       .  A
C803        H807   1.083       .  S
C804        H808   1.082       .  S
C809        C810   1.411   1_545  A
C809        C814   1.403       .  A
C809        H819   1.083       .  S
C810        C815   1.486       .  S
C810        C811   1.400   1_655  A
C811        C812   1.393       .  A
C811        H816   1.083       .  S
C812        C813   1.410   1_455  A
C812        H817   1.083       .  S
C813        C814   1.402   1_565  A
C814        H818   1.083       .  S
C815        C820   1.400   1_565  A
C815        C824   1.412       .  A
C820        C821   1.391       .  A
C820        H825   1.083       .  S
C821        C822   1.408   1_545  A
C821        H826   1.083       .  S
C822        C823   1.402       .  A
C823        C824   1.405       .  A
C823        H827   1.083       .  S
C824        H828   1.083       .  S
C829        C830   1.410       .  A
C829        C834   1.402       .  A
C829        H839   1.083       .  S
C830        C835   1.482       .  S
C830        C831   1.402       .  A
C831        C832   1.390       .  A
C831        H836   1.083       .  S
C832        C833   1.405       .  A
C832        H837   1.084       .  S
C833        C834   1.402       .  A
C834        H838   1.083       .  S
C835        C840   1.400       .  A
C835        C844   1.410       .  A
C840        C841   1.392       .  A
C840        H845   1.083       .  S
C841        C842   1.409       .  A
C841        H846   1.083       .  S
C842        C843   1.401       .  A
C843        C844   1.400       .  A
C843        H847   1.083       .  S
C844        H848   1.083       .  S
C849        C850   1.401       .  A
C849        C854   1.394       .  A
C849        H859   1.083       .  S
C850        C855   1.487       .  S
C850        C851   1.411       .  A
C851        C852   1.400       .  A
C851        H856   1.083       .  S
C852        C853   1.402       .  A
C852        H857   1.083       .  S
C853        C854   1.409       .  A
C854        H858   1.083       .  S
C855        C860   1.412       .  A
C855        C864   1.402       .  A
C860        C861   1.404       .  A
C860        H865   1.082       .  S
C861        C862   1.401       .  A
C861        H866   1.083       .  S
C862        C863   1.403       .  A
C863        C864   1.391       .  A
C863        H867   1.084       .  S
C864        H868   1.083       .  S
C869        C870   1.412       .  A
C869        C874   1.401       .  A
C869        H879   1.082       .  S
C870        C875   1.486       .  S
C870        C871   1.402       .  A
C871        C872   1.392       .  A
C871        H876   1.083       .  S
C872        C873   1.405       .  A
C872        H877   1.084       .  S
C873        C874   1.400       .  A
C874        H878   1.083       .  S
C875        C880   1.401       .  A
C875        C884   1.412       .  A
C880        C881   1.391       .  A
C880        H885   1.083       .  S
C881        C882   1.408       .  A
C881        H886   1.083       .  S
C882        C883   1.401       .  A
C883        C884   1.402       .  A
C883        H887   1.083       .  S
C884        H888   1.082       .  S
C889        C890   1.411       .  A
C889        C894   1.405       .  A
C889        H899   1.083       .  S
C890        C895   1.488       .  S
C890        C891   1.401       .  A
C891        C892   1.392       .  A
C891        H896   1.083       .  S
C892        C893   1.407       .  A
C892        H897   1.083       .  S
C893        C894   1.404       .  A
C894        H898   1.083   1_565  S
C895        C900   1.401       .  A
C895        C904   1.411       .  A
C900        C901   1.395       .  A
C900        H905   1.083       .  S
C901        C902   1.410       .  A
C901        H906   1.083       .  S
C902        C903   1.402       .  A
C903        C904   1.401       .  A
C903        H907   1.083       .  S
C904        H908   1.083       .  S
C909        C910   1.402       .  A
C909        C914   1.392       .  A
C909        H919   1.083       .  S
C910        C915   1.490       .  S
C910        C911   1.412       .  A
C911        C912   1.404       .  A
C911        H916   1.083       .  S
C912        C913   1.404       .  A
C912        H917   1.083       .  S
C913        C914   1.408       .  A
C914        H918   1.083       .  S
C915        C920   1.411       .  A
C915        C924   1.403       .  A
C920        C921   1.402       .  A
C920        H925   1.082       .  S
C921        C922   1.402       .  A
C921        H926   1.083       .  S
C922        C923   1.407       .  A
C923        C924   1.395       .  A
C923        H927   1.083       .  S
C924        H928   1.083       .  S
C929        C930   1.401       .  A
C929        C934   1.394       .  A
C929        H939   1.083       .  S
C930        C935   1.489       .  S
C930        C931   1.411       .  A
C931        C932   1.406       .  A
C931        H936   1.083       .  S
C932        C933   1.405       .  A
C932        H937   1.083       .  S
C933        C934   1.410       .  A
C934        H938   1.083   1_655  S
C935        C940   1.401       .  A
C935        C944   1.411       .  A
C940        C941   1.396       .  A
C940        H945   1.083       .  S
C941        C942   1.411       .  A
C941        H946   1.083       .  S
C942        C943   1.404       .  A
C943        C944   1.405       .  A
C943        H947   1.083       .  S
C944        H948   1.083       .  S
C949        C950   1.400       .  A
C949        C954   1.392       .  A
C949        H959   1.083       .  S
C950        C955   1.490       .  S
C950        C951   1.412       .  A
C951        C952   1.406       .  A
C951        H956   1.083       .  S
C952        C953   1.403       .  A
C952        H957   1.083       .  S
C953        C954   1.410       .  A
C954        H958   1.083       .  S
C955        C960   1.412       .  A
C955        C964   1.401       .  A
C960        C961   1.404       .  A
C960        H965   1.083   1_645  S
C961        C962   1.403       .  A
C961        H966   1.083   1_645  S
C962        C963   1.410       .  A
C963        C964   1.394       .  A
C963        H967   1.083       .  S
C964        H968   1.083       .  S
C969        C970   1.412       .  A
C969        C974   1.405       .  A
C969        H979   1.083       .  S
C970        C975   1.489       .  S
C970        C971   1.401       .  A
C971        C972   1.393       .  A
C971        H976   1.083       .  S
C972        C973   1.410       .  A
C972        H977   1.083       .  S
C973        C974   1.403       .  A
C974        H978   1.083       .  S
C975        C980   1.403       .  A
C975        C984   1.412       .  A
C980        C981   1.394       .  A
C980        H985   1.083   1_655  S
C981        C982   1.406       .  A
C981        H986   1.083   1_655  S
C982        C983   1.402       .  A
C983        C984   1.403       .  A
C983        H987   1.083       .  S
C984        H988   1.083       .  S
C989        C990   1.403       .  A
C989        C994   1.395       .  A
C989        H999   1.083       .  S
C990        C995   1.485       .  S
C990        C991   1.408       .  A
C991        C992   1.406       .  A
C991        H996   1.083       .  S
C992        C993   1.405       .  A
C992        H997   1.083       .  S
C993        C994   1.404       .  A
C994        H998   1.083       .  S
C995       C1000   1.402       .  A
C995       C1004   1.408       .  A
C1000      C1001   1.395       .  A
C1000      H1005   1.083       .  S
C1001      C1002   1.406       .  A
C1001      H1006   1.083       .  S
C1002      C1003   1.405       .  A
C1003      C1004   1.406       .  A
C1003      H1007   1.083       .  S
C1004      H1008   1.083       .  S
C1009      C1010   1.411       .  A
C1009      C1014   1.402       .  A
C1009      H1019   1.083       .  S
C1010      C1015   1.482       .  S
C1010      C1011   1.399       .  A
C1011      C1012   1.388       .  A
C1011      H1016   1.083       .  S
C1012      C1013   1.408       .  A
C1012      H1017   1.083       .  S
C1013      C1014   1.402       .  A
C1014      H1018   1.083       .  S
C1015      C1020   1.401       .  A
C1015      C1024   1.410       .  A
C1020      C1021   1.391       .  A
C1020      H1025   1.083       .  S
C1021      C1022   1.406       .  A
C1021      H1026   1.083       .  S
C1022      C1023   1.400       .  A
C1023      C1024   1.400       .  A
C1023      H1027   1.083       .  S
C1024      H1028   1.083       .  S
C1029      C1030   1.402       .  A
C1029      C1034   1.394       .  A
C1029      H1039   1.083       .  S
C1030      C1035   1.494       .  S
C1030      C1031   1.412       .  A
C1031      C1032   1.406       .  A
C1031      H1036   1.082       .  S
C1032      C1033   1.405       .  A
C1032      H1037   1.083       .  S
C1033      C1034   1.409       .  A
C1034      H1038   1.083       .  S
C1035      C1040   1.412       .  A
C1035      C1044   1.403       .  A
C1040      C1041   1.404       .  A
C1040      H1045   1.082       .  S
C1041      C1042   1.403       .  A
C1041      H1046   1.083       .  S
C1042      C1043   1.410       .  A
C1043      C1044   1.397       .  A
C1043      H1047   1.083       .  S
C1044      H1048   1.083       .  S
C1049      C1050   1.411       .  A
C1049      C1054   1.403       .  A
C1049      H1059   1.083       .  S
C1050      C1055   1.487       .  S
C1050      C1051   1.402       .  A
C1051      C1052   1.394       .  A
C1051      H1056   1.083       .  S
C1052      C1053   1.407       .  A
C1052      H1057   1.083       .  S
C1053      C1054   1.403       .  A
C1054      H1058   1.083       .  S
C1055      C1060   1.401       .  A
C1055      C1064   1.410       .  A
C1060      C1061   1.395       .  A
C1060      H1065   1.083       .  S
C1061      C1062   1.410       .  A
C1061      H1066   1.083       .  S
C1062      C1063   1.403       .  A
C1063      C1064   1.402       .  A
C1063      H1067   1.083       .  S
C1064      H1068   1.083       .  S
C1069      C1070   1.402       .  A
C1069      C1074   1.394       .  A
C1069      H1079   1.083       .  S
C1070      C1075   1.492       .  S
C1070      C1071   1.412       .  A
C1071      C1072   1.405       .  A
C1071      H1076   1.082       .  S
C1072      C1073   1.403       .  A
C1072      H1077   1.083       .  S
C1073      C1074   1.408       .  A
C1074      H1078   1.083       .  S
C1075      C1080   1.411       .  A
C1075      C1084   1.403       .  A
C1080      C1081   1.402       .  A
C1080      H1085   1.082       .  S
C1081      C1082   1.403       .  A
C1081      H1086   1.083       .  S
C1082      C1083   1.408       .  A
C1083      C1084   1.396       .  A
C1083      H1087   1.083       .  S
C1084      H1088   1.083       .  S
C1089      C1090   1.401       .  A
C1089      C1094   1.393       .  A
C1089      H1099   1.083       .  S
C1090      C1095   1.486       .  S
C1090      C1091   1.410       .  A
C1091      C1092   1.404       .  A
C1091      H1096   1.083       .  S
C1092      C1093   1.405       .  A
C1092      H1097   1.083       .  S
C1093      C1094   1.409       .  A
C1094      H1098   1.083       .  S
C1095      C1100   1.410       .  A
C1095      C1104   1.401       .  A
C1100      C1101   1.403       .  A
C1100      H1105   1.083       .  S
C1101      C1102   1.403       .  A
C1101      H1106   1.083       .  S
C1102      C1103   1.409       .  A
C1103      C1104   1.394       .  A
C1103      H1107   1.083       .  S
C1104      H1108   1.083       .  S
C1109      C1110   1.411       .  A
C1109      C1114   1.402       .  A
C1109      H1119   1.082       .  S
C1110      C1115   1.485       .  S
C1110      C1111   1.402       .  A
C1111      C1112   1.392       .  A
C1111      H1116   1.083       .  S
C1112      C1113   1.405       .  A
C1112      H1117   1.084       .  S
C1113      C1114   1.401       .  A
C1114      H1118   1.083       .  S
C1115      C1120   1.401       .  A
C1115      C1124   1.411       .  A
C1120      C1121   1.393       .  A
C1120      H1125   1.083       .  S
C1121      C1122   1.408       .  A
C1121      H1126   1.083       .  S
C1122      C1123   1.401       .  A
C1123      C1124   1.400       .  A
C1123      H1127   1.083       .  S
C1124      H1128   1.082       .  S
C1129      C1130   1.406       .  A
C1129      C1134   1.397       .  A
C1129      H1139   1.082       .  S
C1130      C1135   1.499       .  S
C1130      C1131   1.413       .  A
C1131      C1132   1.404       .  A
C1131      H1136   1.082       .  S
C1132      C1133   1.403       .  A
C1132      H1137   1.083       .  S
C1133      C1134   1.407       .  A
C1134      H1138   1.083       .  S
C1135      C1140   1.414       .  A
C1135      C1144   1.407       .  A
C1140      C1141   1.405       .  A
C1140      H1145   1.082       .  S
C1141      C1142   1.401       .  A
C1141      H1146   1.083       .  S
C1142      C1143   1.404       .  A
C1143      C1144   1.396       .  A
C1143      H1147   1.084       .  S
C1144      H1148   1.082       .  S
C1149      C1150   1.401       .  A
C1149      C1154   1.391       .  A
C1149      H1159   1.082       .  S
C1150      C1155   1.484       .  S
C1150      C1151   1.410       .  A
C1151      C1152   1.400       .  A
C1151      H1156   1.083       .  S
C1152      C1153   1.403       .  A
C1152      H1157   1.083       .  S
C1153      C1154   1.408       .  A
C1154      H1158   1.083       .  S
C1155      C1160   1.411       .  A
C1155      C1164   1.403       .  A
C1160      C1161   1.400       .  A
C1160      H1165   1.083       .  S
C1161      C1162   1.399       .  A
C1161      H1166   1.083       .  S
C1162      C1163   1.403       .  A
C1163      C1164   1.392       .  A
C1163      H1167   1.084       .  S
C1164      H1168   1.082       .  S
C1169      C1170   1.411       .  A
C1169      C1174   1.401       .  A
C1169      H1179   1.082       .  S
C1170      C1175   1.491       .  S
C1170      C1171   1.404       .  A
C1171      C1172   1.396       .  A
C1171      H1176   1.083       .  S
C1172      C1173   1.406       .  A
C1172      H1177   1.083       .  S
C1173      C1174   1.401       .  A
C1174      H1178   1.083       .  S
C1175      C1180   1.402       .  A
C1175      C1184   1.412       .  A
C1180      C1181   1.393       .  A
C1180      H1185   1.082       .  S
C1181      C1182   1.409       .  A
C1181      H1186   1.083       .  S
C1182      C1183   1.403       .  A
C1183      C1184   1.403       .  A
C1183      H1187   1.083       .  S
C1184      H1188   1.082       .  S
C1189      C1190   1.411       .  A
C1189      C1194   1.402       .  A
C1189      H1199   1.083   1_545  S
C1190      C1195   1.485       .  S
C1190      C1191   1.400       .  A
C1191      C1192   1.395       .  A
C1191      H1196   1.083       .  S
C1192      C1193   1.409       .  A
C1192      H1197   1.083       .  S
C1193      C1194   1.401       .  A
C1194      H1198   1.083   1_545  S
C1195      C1200   1.401       .  A
C1195      C1204   1.409       .  A
C1200      C1201   1.393       .  A
C1200      H1205   1.083       .  S
C1201      C1202   1.407       .  A
C1201      H1206   1.083       .  S
C1202      C1203   1.404       .  A
C1203      C1204   1.404       .  A
C1203      H1207   1.083       .  S
C1204      H1208   1.083       .  S
C1209      C1210   1.412       .  A
C1209      C1214   1.403       .  A
C1209      H1219   1.083       .  S
C1210      C1215   1.487       .  S
C1210      C1211   1.401       .  A
C1211      C1212   1.393   1_545  A
C1211      H1216   1.083   1_545  S
C1212      C1213   1.409   1_565  A
C1212      H1217   1.083       .  S
C1213      C1214   1.402       .  A
C1214      H1218   1.083       .  S
C1215      C1220   1.402       .  A
C1215      C1224   1.412       .  A
C1220      C1221   1.393       .  A
C1220      H1225   1.083       .  S
C1221      C1222   1.405       .  A
C1221      H1226   1.084       .  S
C1222      C1223   1.400       .  A
C1223      C1224   1.402       .  A
C1223      H1227   1.083       .  S
C1224      H1228   1.082       .  S
C1229      C1230   1.402       .  A
C1229      C1234   1.396       .  A
C1229      H1239   1.083       .  S
C1230      C1235   1.491       .  S
C1230      C1231   1.411       .  A
C1231      C1232   1.403       .  A
C1231      H1236   1.083       .  S
C1232      C1233   1.404       .  A
C1232      H1237   1.083       .  S
C1233      C1234   1.409       .  A
C1234      H1238   1.083       .  S
C1235      C1240   1.411       .  A
C1235      C1244   1.402       .  A
C1240      C1241   1.404       .  A
C1240      H1245   1.083       .  S
C1241      C1242   1.403       .  A
C1241      H1246   1.083   1_565  S
C1242      C1243   1.409       .  A
C1243      C1244   1.395       .  A
C1243      H1247   1.083       .  S
C1244      H1248   1.083       .  S
C1249      C1250   1.410       .  A
C1249      C1254   1.404       .  A
C1249      H1259   1.083       .  S
C1250      C1255   1.487       .  S
C1250      C1251   1.401       .  A
C1251      C1252   1.392       .  A
C1251      H1256   1.083       .  S
C1252      C1253   1.408       .  A
C1252      H1257   1.083       .  S
C1253      C1254   1.405       .  A
C1254      H1258   1.083       .  S
C1255      C1260   1.410       .  A
C1255      C1264   1.402       .  A
C1260      C1261   1.401       .  A
C1260      H1265   1.083       .  S
C1261      C1262   1.403       .  A
C1261      H1266   1.083       .  S
C1262      C1263   1.409       .  A
C1263      C1264   1.396       .  A
C1263      H1267   1.083       .  S
C1264      H1268   1.083       .  S
C1269      C1270   1.411       .  A
C1269      C1274   1.401       .  A
C1269      H1279   1.083       .  S
C1270      C1275   1.484       .  S
C1270      C1271   1.401       .  A
C1271      C1272   1.391       .  A
C1271      H1276   1.083       .  S
C1272      C1273   1.407       .  A
C1272      H1277   1.083       .  S
C1273      C1274   1.401       .  A
C1274      H1278   1.083       .  S
C1275      C1280   1.403       .  A
C1275      C1284   1.410       .  A
C1280      C1281   1.392       .  A
C1280      H1285   1.083       .  S
C1281      C1282   1.404       .  A
C1281      H1286   1.083       .  S
C1282      C1283   1.402       .  A
C1283      C1284   1.400       .  A
C1283      H1287   1.083       .  S
C1284      H1288   1.082       .  S
C1289      C1290   1.403       .  A
C1289      C1294   1.392       .  A
C1289      H1299   1.082       .  S
C1290      C1295   1.488       .  S
C1290      C1291   1.412   1_545  A
C1291      C1292   1.404       .  A
C1291      H1296   1.082       .  S
C1292      C1293   1.401       .  A
C1292      H1297   1.083       .  S
C1293      C1294   1.402   1_565  A
C1294      H1298   1.084       .  S
C1295      C1300   1.411       .  A
C1295      C1304   1.402       .  A
C1300      C1301   1.401       .  A
C1300      H1305   1.083       .  S
C1301      C1302   1.402       .  A
C1301      H1306   1.083       .  S
C1302      C1303   1.409       .  A
C1303      C1304   1.394       .  A
C1303      H1307   1.083       .  S
C1304      H1308   1.082   1_545  S
C1309      C1310   1.404       .  A
C1309      C1314   1.394       .  A
C1309      H1319   1.082       .  S
C1310      C1315   1.490       .  S
C1310      C1311   1.412       .  A
C1311      C1312   1.400       .  A
C1311      H1316   1.082   1_565  S
C1312      C1313   1.402       .  A
C1312      H1317   1.083   1_565  S
C1313      C1314   1.407       .  A
C1314      H1318   1.083       .  S
C1315      C1320   1.413       .  A
C1315      C1324   1.402   1_565  A
C1320      C1321   1.403       .  A
C1320      H1325   1.082       .  S
C1321      C1322   1.402       .  A
C1321      H1326   1.083       .  S
C1322      C1323   1.408   1_565  A
C1323      C1324   1.390       .  A
C1323      H1327   1.083       .  S
C1324      H1328   1.082       .  S
C1329      C1330   1.402       .  A
C1329      C1334   1.396       .  A
C1329      H1339   1.083       .  S
C1330      C1335   1.491       .  S
C1330      C1331   1.411       .  A
C1331      C1332   1.403       .  A
C1331      H1336   1.083       .  S
C1332      C1333   1.403       .  A
C1332      H1337   1.083       .  S
C1333      C1334   1.410       .  A
C1334      H1338   1.083       .  S
C1335      C1340   1.401       .  A
C1335      C1344   1.411       .  A
C1340      C1341   1.393       .  A
C1340      H1345   1.083       .  S
C1341      C1342   1.409       .  A
C1341      H1346   1.083       .  S
C1342      C1343   1.405       .  A
C1343      C1344   1.406       .  A
C1343      H1347   1.083       .  S
C1344      H1348   1.083       .  S
C1349      C1350   1.412       .  A
C1349      C1354   1.404       .  A
C1349      H1359   1.082       .  S
C1350      C1355   1.492       .  S
C1350      C1351   1.402       .  A
C1351      C1352   1.396       .  A
C1351      H1356   1.083       .  S
C1352      C1353   1.410       .  A
C1352      H1357   1.083       .  S
C1353      C1354   1.403       .  A
C1354      H1358   1.083       .  S
C1355      C1360   1.401       .  A
C1355      C1364   1.413       .  A
C1360      C1361   1.393       .  A
C1360      H1365   1.083       .  S
C1361      C1362   1.410       .  A
C1361      H1366   1.083       .  S
C1362      C1363   1.404       .  A
C1363      C1364   1.407       .  A
C1363      H1367   1.083       .  S
C1364      H1368   1.083       .  S
C1369      C1370   1.412       .  A
C1369      C1374   1.403       .  A
C1369      H1379   1.082       .  S
C1370      C1375   1.490       .  S
C1370      C1371   1.402       .  A
C1371      C1372   1.393       .  A
C1371      H1376   1.083       .  S
C1372      C1373   1.408       .  A
C1372      H1377   1.083       .  S
C1373      C1374   1.402       .  A
C1374      H1378   1.083       .  S
C1375      C1380   1.401       .  A
C1375      C1384   1.413       .  A
C1380      C1381   1.392       .  A
C1380      H1385   1.083       .  S
C1381      C1382   1.409       .  A
C1381      H1386   1.083       .  S
C1382      C1383   1.403       .  A
C1383      C1384   1.405       .  A
C1383      H1387   1.083       .  S
C1384      H1388   1.082       .  S
C1389      C1390   1.411       .  A
C1389      C1394   1.403       .  A
C1389      H1399   1.083       .  S
C1390      C1395   1.489       .  S
C1390      C1391   1.402       .  A
C1391      C1392   1.394       .  A
C1391      H1396   1.083       .  S
C1392      C1393   1.408       .  A
C1392      H1397   1.083       .  S
C1393      C1394   1.404       .  A
C1394      H1398   1.083       .  S
C1395      C1400   1.410       .  A
C1395      C1404   1.402       .  A
C1400      C1401   1.403       .  A
C1400      H1405   1.083       .  S
C1401      C1402   1.404       .  A
C1401      H1406   1.083       .  S
C1402      C1403   1.409       .  A
C1403      C1404   1.394       .  A
C1403      H1407   1.083       .  S
C1404      H1408   1.083       .  S
C1409      C1410   1.400       .  A
C1409      C1414   1.389       .  A
C1409      H1419   1.083       .  S
C1410      C1415   1.480       .  S
C1410      C1411   1.410       .  A
C1411      C1412   1.402       .  A
C1411      H1416   1.083       .  S
C1412      C1413   1.403       .  A
C1412      H1417   1.083       .  S
C1413      C1414   1.406       .  A
C1414      H1418   1.083       .  S
C1415      C1420   1.410       .  A
C1415      C1424   1.398       .  A
C1420      C1421   1.401       .  A
C1420      H1425   1.083       .  S
C1421      C1422   1.402       .  A
C1421      H1426   1.083       .  S
C1422      C1423   1.410       .  A
C1423      C1424   1.391       .  A
C1423      H1427   1.083       .  S
C1424      H1428   1.083       .  S
C1429      C1430   1.410       .  A
C1429      C1434   1.406       .  A
C1429      H1439   1.083       .  S
C1430      C1435   1.487       .  S
C1430      C1431   1.400       .  A
C1431      C1432   1.394       .  A
C1431      H1436   1.083   1_545  S
C1432      C1433   1.410       .  A
C1432      H1437   1.083       .  S
C1433      C1434   1.405       .  A
C1434      H1438   1.083       .  S
C1435      C1440   1.401       .  A
C1435      C1444   1.410   1_545  A
C1440      C1441   1.396       .  A
C1440      H1445   1.083       .  S
C1441      C1442   1.410       .  A
C1441      H1446   1.083       .  S
C1442      C1443   1.404   1_545  A
C1443      C1444   1.404       .  A
C1443      H1447   1.083       .  S
C1444      H1448   1.083       .  S
C1449      C1450   1.402       .  A
C1449      C1454   1.395       .  A
C1449      H1459   1.083       .  S
C1450      C1455   1.493       .  S
C1450      C1451   1.412       .  A
C1451      C1452   1.405       .  A
C1451      H1456   1.082       .  S
C1452      C1453   1.403       .  A
C1452      H1457   1.083       .  S
C1453      C1454   1.409       .  A
C1454      H1458   1.083       .  S
C1455      C1460   1.412       .  A
C1455      C1464   1.402       .  A
C1460      C1461   1.405       .  A
C1460      H1465   1.082       .  S
C1461      C1462   1.404       .  A
C1461      H1466   1.083       .  S
C1462      C1463   1.410       .  A
C1463      C1464   1.396       .  A
C1463      H1467   1.083       .  S
C1464      H1468   1.083       .  S
C1469      C1470   1.411       .  A
C1469      C1474   1.402       .  A
C1469      H1479   1.082       .  S
C1470      C1475   1.491       .  S
C1470      C1471   1.403       .  A
C1471      C1472   1.396       .  A
C1471      H1476   1.083       .  S
C1472      C1473   1.409       .  A
C1472      H1477   1.083       .  S
C1473      C1474   1.403       .  A
C1474      H1478   1.083       .  S
C1475      C1480   1.404       .  A
C1475      C1484   1.411       .  A
C1480      C1481   1.395       .  A
C1480      H1485   1.083       .  S
C1481      C1482   1.405       .  A
C1481      H1486   1.083       .  S
C1482      C1483   1.403       .  A
C1483      C1484   1.403       .  A
C1483      H1487   1.083       .  S
C1484      H1488   1.082       .  S
C1489      C1490   1.412       .  A
C1489      C1494   1.408       .  A
C1489      H1499   1.083       .  S
C1490      C1495   1.490       .  S
C1490      C1491   1.400       .  A
C1491      C1492   1.391       .  A
C1491      H1496   1.083       .  S
C1492      C1493   1.410       .  A
C1492      H1497   1.083   1_655  S
C1493      C1494   1.405       .  A
C1494      H1498   1.083       .  S
C1495      C1500   1.411       .  A
C1495      C1504   1.402       .  A
C1500      C1501   1.402       .  A
C1500      H1505   1.083       .  S
C1501      C1502   1.404       .  A
C1501      H1506   1.083       .  S
C1502      C1503   1.410       .  A
C1503      C1504   1.398       .  A
C1503      H1507   1.083       .  S
C1504      H1508   1.083       .  S
C1509      C1510   1.410       .  A
C1509      C1514   1.401       .  A
C1509      H1519   1.083       .  S
C1510      C1515   1.489       .  S
C1510      C1511   1.403       .  A
C1511      C1512   1.396       .  A
C1511      H1516   1.083       .  S
C1512      C1513   1.408       .  A
C1512      H1517   1.083       .  S
C1513      C1514   1.403       .  A
C1514      H1518   1.083       .  S
C1515      C1520   1.411       .  A
C1515      C1524   1.401       .  A
C1520      C1521   1.404       .  A
C1520      H1525   1.082       .  S
C1521      C1522   1.404       .  A
C1521      H1526   1.083       .  S
C1522      C1523   1.409       .  A
C1523      C1524   1.392       .  A
C1523      H1527   1.083       .  S
C1524      H1528   1.083       .  S
C1529      C1530   1.400       .  A
C1529      C1534   1.395       .  A
C1529      H1539   1.083       .  S
C1530      C1535   1.486       .  S
C1530      C1531   1.410       .  A
C1531      C1532   1.404       .  A
C1531      H1536   1.083       .  S
C1532      C1533   1.403       .  A
C1532      H1537   1.083       .  S
C1533      C1534   1.410       .  A
C1534      H1538   1.083       .  S
C1535      C1540   1.410       .  A
C1535      C1544   1.400       .  A
C1540      C1541   1.405       .  A
C1540      H1545   1.083   1_655  S
C1541      C1542   1.405       .  A
C1541      H1546   1.083   1_655  S
C1542      C1543   1.409       .  A
C1543      C1544   1.393       .  A
C1543      H1547   1.083       .  S
C1544      H1548   1.083       .  S
C1549      C1550   1.403       .  A
C1549      C1554   1.394       .  A
C1549      H1559   1.083       .  S
C1550      C1555   1.492       .  S
C1550      C1551   1.413       .  A
C1551      C1552   1.405       .  A
C1551      H1556   1.082       .  S
C1552      C1553   1.402       .  A
C1552      H1557   1.083       .  S
C1553      C1554   1.406       .  A
C1554      H1558   1.084       .  S
C1555      C1560   1.412       .  A
C1555      C1564   1.402       .  A
C1560      C1561   1.403       .  A
C1560      H1565   1.082       .  S
C1561      C1562   1.402       .  A
C1561      H1566   1.083       .  S
C1562      C1563   1.410       .  A
C1563      C1564   1.396       .  A
C1563      H1567   1.083       .  S
C1564      H1568   1.083       .  S
C1569      C1570   1.413       .  A
C1569      C1574   1.404       .  A
C1569      H1579   1.082       .  S
C1570      C1575   1.493       .  S
C1570      C1571   1.402       .  A
C1571      C1572   1.393       .  A
C1571      H1576   1.082       .  S
C1572      C1573   1.409       .  A
C1572      H1577   1.083       .  S
C1573      C1574   1.403       .  A
C1574      H1578   1.083       .  S
C1575      C1580   1.404   1_655  A
C1575      C1584   1.412       .  A
C1580      C1581   1.395       .  A
C1580      H1585   1.082       .  S
C1581      C1582   1.406   1_455  A
C1581      H1586   1.083       .  S
C1582      C1583   1.401       .  A
C1583      C1584   1.402       .  A
C1583      H1587   1.083       .  S
C1584      H1588   1.082       .  S
C1589      C1590   1.401       .  A
C1589      C1594   1.394       .  A
C1589      H1599   1.083       .  S
C1590      C1595   1.490       .  S
C1590      C1591   1.411       .  A
C1591      C1592   1.406       .  A
C1591      H1596   1.083       .  S
C1592      C1593   1.404       .  A
C1592      H1597   1.083       .  S
C1593      C1594   1.410       .  A
C1594      H1598   1.083       .  S
C1595      C1600   1.401       .  A
C1595      C1604   1.411       .  A
C1600      C1601   1.396       .  A
C1600      H1605   1.083       .  S
C1601      C1602   1.410       .  A
C1601      H1606   1.083       .  S
C1602      C1603   1.404       .  A
C1603      C1604   1.404       .  A
C1603      H1607   1.083       .  S
C1604      H1608   1.083       .  S
C1609      C1610   1.400       .  A
C1609      C1614   1.393       .  A
C1609      H1619   1.083       .  S
C1610      C1615   1.482       .  S
C1610      C1611   1.410       .  A
C1611      C1612   1.400       .  A
C1611      H1616   1.083       .  S
C1612      C1613   1.401       .  A
C1612      H1617   1.083       .  S
C1613      C1614   1.409       .  A
C1614      H1618   1.083       .  S
C1615      C1620   1.410       .  A
C1615      C1624   1.401       .  A
C1620      C1621   1.403       .  A
C1620      H1625   1.083       .  S
C1621      C1622   1.402       .  A
C1621      H1626   1.083       .  S
C1622      C1623   1.405       .  A
C1623      C1624   1.391       .  A
C1623      H1627   1.084       .  S
C1624      H1628   1.083       .  S
C1629      C1630   1.402       .  A
C1629      C1634   1.395       .  A
C1629      H1639   1.082   1_545  S
C1630      C1635   1.487       .  S
C1630      C1631   1.410       .  A
C1631      C1632   1.400       .  A
C1631      H1636   1.083       .  S
C1632      C1633   1.402       .  A
C1632      H1637   1.083       .  S
C1633      C1634   1.409       .  A
C1634      H1638   1.083       .  S
C1635      C1640   1.411   1_545  A
C1635      C1644   1.404       .  A
C1640      C1641   1.404       .  A
C1640      H1645   1.083       .  S
C1641      C1642   1.402       .  A
C1641      H1646   1.083       .  S
C1642      C1643   1.402   1_565  A
C1643      C1644   1.392       .  A
C1643      H1647   1.084       .  S
C1644      H1648   1.082       .  S
C1649      C1650   1.409       .  A
C1649      C1654   1.403   1_545  A
C1649      H1659   1.083   1_545  S
C1650      C1655   1.485       .  S
C1650      C1651   1.400       .  A
C1651      C1652   1.395       .  A
C1651      H1656   1.083       .  S
C1652      C1653   1.410       .  A
C1652      H1657   1.083       .  S
C1653      C1654   1.404   1_545  A
C1654      H1658   1.083       .  S
C1655      C1660   1.400       .  A
C1655      C1664   1.409       .  A
C1660      C1661   1.393       .  A
C1660      H1665   1.083       .  S
C1661      C1662   1.409       .  A
C1661      H1666   1.083       .  S
C1662      C1663   1.405       .  A
C1663      C1664   1.404       .  A
C1663      H1667   1.083       .  S
C1664      H1668   1.083       .  S
C1669      C1670   1.402   1_565  A
C1669      C1674   1.393       .  A
C1669      H1679   1.082       .  S
C1670      C1675   1.493       .  S
C1670      C1671   1.413       .  A
C1671      C1672   1.404       .  A
C1671      H1676   1.082       .  S
C1672      C1673   1.403       .  A
C1672      H1677   1.083       .  S
C1673      C1674   1.409   1_545  A
C1674      H1678   1.083       .  S
C1675      C1680   1.412       .  A
C1675      C1684   1.405       .  A
C1680      C1681   1.402       .  A
C1680      H1685   1.082   1_545  S
C1681      C1682   1.400       .  A
C1681      H1686   1.083       .  S
C1682      C1683   1.404       .  A
C1683      C1684   1.396       .  A
C1683      H1687   1.084       .  S
C1684      H1688   1.082       .  S
C1689      C1690   1.401       .  A
C1689      C1694   1.393       .  A
C1689      H1699   1.083       .  S
C1690      C1695   1.487       .  S
C1690      C1691   1.410       .  A
C1691      C1692   1.406       .  A
C1691      H1696   1.083       .  S
C1692      C1693   1.405       .  A
C1692      H1697   1.083       .  S
C1693      C1694   1.409       .  A
C1694      H1698   1.083       .  S
C1695      C1700   1.409       .  A
C1695      C1704   1.401       .  A
C1700      C1701   1.402       .  A
C1700      H1705   1.083       .  S
C1701      C1702   1.404       .  A
C1701      H1706   1.083       .  S
C1702      C1703   1.410       .  A
C1703      C1704   1.397       .  A
C1703      H1707   1.083       .  S
C1704      H1708   1.083       .  S
C1709      C1710   1.403       .  A
C1709      C1714   1.396       .  A
C1709      H1719   1.083       .  S
C1710      C1715   1.494       .  S
C1710      C1711   1.412       .  A
C1711      C1712   1.403       .  A
C1711      H1716   1.082   1_565  S
C1712      C1713   1.403       .  A
C1712      H1717   1.083   1_565  S
C1713      C1714   1.410       .  A
C1714      H1718   1.083       .  S
C1715      C1720   1.414       .  A
C1715      C1724   1.402       .  A
C1720      C1721   1.407       .  A
C1720      H1725   1.082       .  S
C1721      C1722   1.403       .  A
C1721      H1726   1.083       .  S
C1722      C1723   1.407       .  A
C1723      C1724   1.392       .  A
C1723      H1727   1.083   1_565  S
C1724      H1728   1.083   1_565  S
