geometry optimzed in LAMMPS
_audit_creation_date              2020-12-01 
_audit_creation_method            'lammps2cif' 
_symmetry_space_group_name_H-M    'P1' 
_symmetry_Int_Tables_number       1 
_symmetry_cell_setting            triclinic 
loop_ 
_symmetry_equiv_pos_as_xyz 
  x,y,z 
_cell_length_a                    43.6419289 
_cell_length_b                    51.04235448318759 
_cell_length_c                    30.094896505107002 
_cell_angle_alpha                 89.8905808032906 
_cell_angle_beta                  90.01339905309719 
_cell_angle_gamma                 89.98559495175414 
loop_ 
_atom_site_label 
_atom_site_type_symbol 
_atom_site_fract_x 
_atom_site_fract_y 
_atom_site_fract_z 
_atom_site_charge 
Zn1        Zn  0.33899313  0.47256997  0.53216012     1.49700
Zn2        Zn  0.38299423  0.51964486  0.56642317     1.49400
Zn3        Zn  0.31205765  0.51738013  0.58192548     1.49100
Zn4        Zn  0.35726292  0.47635974  0.63142301     1.49500
O5          O  0.34872222  0.49646485  0.57906232    -1.83400
O6          O  0.35680359  0.48832334  0.47871298    -0.74000
O7          O  0.37222456  0.55621509  0.58639455    -0.73800
O8          O  0.28449031  0.51290527  0.52800904    -0.73300
O9          O  0.38881810  0.52028754  0.49914887    -0.74000
O10         O  0.29389937  0.47086514  0.51627141    -0.73600
O11         O  0.32167528  0.55506640  0.59201697    -0.74200
O12         O  0.32278127  0.48229620  0.67468627    -0.73600
O13         O  0.42060994  0.51048318  0.60435667    -0.74300
O14         O  0.28994602  0.50730876  0.63668992    -0.73700
O15         O  0.39785027  0.48737422  0.65783375    -0.74200
O16         O  0.36269442  0.43788494  0.61653656    -0.74100
O17         O  0.35600329  0.43653039  0.54350692    -0.73900
C18         C  0.37482041  0.50706768  0.46930876     0.77900
C19         C  0.34686951  0.56735552  0.59537860     0.78400
C20         C  0.27800393  0.49135102  0.50893152     0.77400
C21         C  0.29751814  0.49481257  0.67164105     0.77700
C22         C  0.42129103  0.49923881  0.64239981     0.78900
C23         C  0.36347201  0.42539901  0.57985211     0.77900
Zn24       Zn  0.35755207  0.76361094  0.62157964     1.49700
Zn25       Zn  0.31100187  0.72363170  0.66830466     1.49400
Zn26       Zn  0.38218650  0.72225948  0.68967167     1.49100
Zn27       Zn  0.33793983  0.76904385  0.72174386     1.49500
O28         O  0.34738100  0.74467421  0.67499843    -1.83400
O29         O  0.32418646  0.75914463  0.57620226    -0.74000
O30         O  0.32157121  0.68568318  0.66329809    -0.73800
O31         O  0.42044857  0.73180764  0.65350393    -0.73300
O32         O  0.29191793  0.73219330  0.61053057    -0.74000
O33         O  0.39708152  0.75018390  0.59549436    -0.73600
O34         O  0.37212311  0.68532639  0.67104029    -0.74200
O35         O  0.35677735  0.75483544  0.77575528    -0.73600
O36         O  0.27953868  0.72994328  0.71644804    -0.74300
O37         O  0.38818703  0.72225186  0.75670240    -0.73700
O38         O  0.29335315  0.76930495  0.74045171    -0.74200
O39         O  0.35442681  0.80524260  0.70779783    -0.74100
O40         O  0.36475284  0.80187296  0.63568815    -0.73900
C41         C  0.29960433  0.74567477  0.57678083     0.77900
C42         C  0.34709413  0.67365113  0.66206540     0.78400
C43         C  0.42076224  0.74012346  0.61342031     0.77400
C44         C  0.37476425  0.73624387  0.78594234     0.77700
C45         C  0.27469691  0.75008457  0.74041025     0.78900
C46         C  0.36393231  0.81526330  0.67143293     0.77900
Zn47       Zn  0.42853259  0.47909095  0.22320635     1.49700
Zn48       Zn  0.38368565  0.52455073  0.18548139     1.49400
Zn49       Zn  0.45587858  0.52349159  0.16907639     1.49100
Zn50       Zn  0.41164674  0.48144157  0.12242239     1.49500
O51         O  0.41946976  0.50227741  0.17450857    -1.83400
O52         O  0.40797957  0.49400586  0.27458873    -0.74000
O53         O  0.39435445  0.56182650  0.16875483    -0.73800
O54         O  0.48618358  0.51855863  0.21925803    -0.73300
O55         O  0.37446519  0.52428178  0.25208144    -0.74000
O56         O  0.47258017  0.47937890  0.24417784    -0.73600
O57         O  0.44499160  0.56111262  0.16217692    -0.74200
O58         O  0.44598173  0.48613166  0.07889957    -0.73600
O59         O  0.34746569  0.51493503  0.14463000    -0.74300
O60         O  0.47673189  0.51441503  0.11296725    -0.73700
O61         O  0.37203866  0.49202324  0.09310656    -0.74200
O62         O  0.40582236  0.44345756  0.13900339    -0.74100
O63         O  0.41286878  0.44263500  0.21209299    -0.73900
C64         C  0.38824327  0.51155107  0.28274913     0.77900
C65         C  0.41963942  0.57335717  0.16064268     0.78400
C66         C  0.49089858  0.49880843  0.24428111     0.77400
C67         C  0.47014648  0.50013765  0.07977121     0.77700
C68         C  0.34796620  0.50366622  0.10666489     0.78900
C69         C  0.40521111  0.43132978  0.17606827     0.77900
Zn70       Zn  0.45604806  0.73064619  0.08769964     1.49700
Zn71       Zn  0.41007226  0.77218043  0.13322471     1.49400
Zn72       Zn  0.42779116  0.77479727  0.03116986     1.49100
Zn73       Zn  0.38492355  0.72818598  0.06938898     1.49500
O74         O  0.41950545  0.75169815  0.08077993    -1.83400
O75         O  0.47528953  0.73982247  0.14506504    -0.74000
O76         O  0.40435494  0.81073718  0.11673226    -0.73800
O77         O  0.47156564  0.77317071  0.00795860    -0.73300
O78         O  0.44231152  0.76560367  0.18097578    -0.74000
O79         O  0.48694435  0.73575522  0.03817502    -0.73600
O80         O  0.41380595  0.81206251  0.04405485    -0.74200
O81         O  0.37734470  0.72628621  0.00316214    -0.73600
O82         O  0.36945315  0.76116295  0.15820552    -0.74300
O83         O  0.40607176  0.75979761  0.97988051    -0.73700
O84         O  0.34724018  0.73734532  0.10560754    -0.74200
O85         O  0.39534568  0.69196945  0.09039864    -0.74100
O86         O  0.44602177  0.69254240  0.09507493    -0.73900
C87         C  0.46700164  0.75218594  0.17968243     0.77900
C88         C  0.40522637  0.82324507  0.07991771     0.78400
C89         C  0.49081388  0.75442181  0.01054979     0.77400
C90         C  0.38883448  0.74027533  0.97223135     0.77700
C91         C  0.34633032  0.74878040  0.14323231     0.78900
C92         C  0.42061508  0.68050418  0.09842207     0.77900
Zn93       Zn  0.08537430  0.46718372  0.28526358     1.49700
Zn94       Zn  0.10668954  0.47642325  0.38369676     1.49400
Zn95       Zn  0.13937006  0.50763099  0.30865893     1.49100
Zn96       Zn  0.06949732  0.52082267  0.33183547     1.49500
O97         O  0.10034621  0.49323030  0.32725001    -1.83400
O98         O  0.08235435  0.43096758  0.31127252    -0.74000
O99         O  0.14898980  0.48149742  0.40760263    -0.73800
O100        O  0.14529404  0.49837145  0.24419629    -0.73300
O101        O  0.09993132  0.43803717  0.37932114    -0.74000
O102        O  0.11200475  0.46606710  0.23240195    -0.73600
O103        O  0.17483979  0.49748142  0.35005404    -0.74200
O104        O  0.09042432  0.55674257  0.33412506    -0.73600
O105        O  0.07582121  0.48857094  0.42702095    -0.74300
O106        O  0.13766060  0.54679981  0.31217077    -0.73700
O107        O  0.04490732  0.51470188  0.38805108    -0.74200
O108        O  0.03969280  0.51926013  0.27937772    -0.74100
O109        O  0.04558162  0.47807639  0.25729006    -0.73900
C110        C  0.08977459  0.42264102  0.34966736     0.77900
C111        C  0.17401161  0.48889757  0.38996038     0.78400
C112        C  0.13232281  0.48184649  0.21852509     0.77400
C113        C  0.11771593  0.56359859  0.32398756     0.77700
C114        C  0.05137908  0.50192056  0.42328692     0.78900
C115        C  0.03199636  0.50008582  0.25452771     0.77900
Zn116      Zn  0.10194440  0.25823736  0.36673155     1.49700
Zn117      Zn  0.06382837  0.21559827  0.42165443     1.49400
Zn118      Zn  0.13403418  0.23103158  0.44467263     1.49100
Zn119      Zn  0.07711357  0.27002836  0.46227541     1.49500
O120        O  0.09447102  0.24340305  0.42415921    -1.83400
O121        O  0.07068640  0.24609406  0.32491031    -0.74000
O122        O  0.08582196  0.18032196  0.42335672    -0.73800
O123        O  0.17034483  0.24358108  0.40491026    -0.73300
O124        O  0.03960565  0.22019605  0.36394622    -0.74000
O125        O  0.14387331  0.25089093  0.34318192    -0.73600
O126        O  0.13367970  0.19134279  0.44093124    -0.74200
O127        O  0.09980262  0.27036022  0.51924251    -0.73600
O128        O  0.03309268  0.21825036  0.47334813    -0.74300
O129        O  0.13735980  0.24130987  0.50967811    -0.73700
O130        O  0.03422654  0.26139021  0.48188818    -0.74200
O131        O  0.07815749  0.30569576  0.43445542    -0.74100
O132        O  0.09708951  0.29704459  0.36771483    -0.73900
C133        C  0.04627994  0.23275579  0.32847940     0.77900
C134        C  0.11357526  0.17397071  0.43183473     0.78400
C135        C  0.16938715  0.24793978  0.36300475     0.77400
C136        C  0.12172308  0.25664787  0.53447416     0.77700
C137        C  0.02202265  0.23922456  0.48995059     0.78900
C138        C  0.08699984  0.31321620  0.39622656     0.77900
Zn139      Zn  0.20562150  0.47920492  0.91423771     1.49700
Zn140      Zn  0.18023489  0.52570548  0.96596972     1.49400
Zn141      Zn  0.16032905  0.52133610  0.86731860     1.49100
Zn142      Zn  0.13452926  0.47853062  0.93412561     1.49500
O143        O  0.16967474  0.50109151  0.91994518    -1.83400
O144        O  0.23714342  0.48446712  0.96333117    -0.74000
O145        O  0.16718092  0.56269241  0.95234877    -0.73800
O146        O  0.19442800  0.51656864  0.82286581    -0.73300
O147        O  0.22418107  0.52387016  0.98768756    -0.74000
O148        O  0.22522238  0.48825839  0.85732955    -0.73600
O149        O  0.15300013  0.55973183  0.88175551    -0.74200
O150        O  0.09727642  0.48740057  0.89505016    -0.73600
O151        O  0.15813575  0.51377057  0.01808843    -0.74300
O152        O  0.12067818  0.50919852  0.84072646    -0.73700
O153        O  0.12745772  0.48035488  0.00136324    -0.74200
O154        O  0.14401063  0.44087779  0.91737311    -0.74100
O155        O  0.19431832  0.44126334  0.90762637    -0.73900
C156        C  0.24242770  0.50437375  0.98771790     0.77900
C157        C  0.15613482  0.57301619  0.91728545     0.78400
C158        C  0.21852006  0.50239668  0.82390173     0.77400
C159        C  0.09705977  0.49771152  0.85625406     0.77700
C160        C  0.13971141  0.49583106  0.02966987     0.78900
C161        C  0.16885081  0.42912149  0.90753488     0.77900
Zn162      Zn  0.16084515  0.22944765  0.88753479     1.49700
Zn163      Zn  0.13247792  0.27154199  0.82016237     1.49400
Zn164      Zn  0.20419097  0.27152785  0.83815383     1.49100
Zn165      Zn  0.17836036  0.22484620  0.78830339     1.49500
O166        O  0.16828285  0.24951679  0.83411088    -1.83400
O167        O  0.12076324  0.24036604  0.91468814    -0.74000
O168        O  0.14196804  0.30959770  0.83594912    -0.73800
O169        O  0.22650637  0.26281305  0.89369574    -0.73300
O170        O  0.09628987  0.26212000  0.86131350    -0.74000
O171        O  0.19507388  0.23619007  0.93050331    -0.73600
O172        O  0.19227458  0.30900174  0.84600758    -0.74200
O173        O  0.22163738  0.22708052  0.76472016    -0.73600
O174        O  0.12353495  0.26848966  0.75281256    -0.74300
O175        O  0.23317495  0.26735563  0.78593041    -0.73700
O176        O  0.15473417  0.23536227  0.73695294    -0.74200
O177        O  0.16639509  0.18807585  0.80316728    -0.74100
O178        O  0.15636357  0.19035208  0.87522190    -0.73900
C179        C  0.09666929  0.25150297  0.89992843     0.77900
C180        C  0.16686888  0.32122520  0.84612905     0.78400
C181        C  0.21965072  0.24963590  0.92820058     0.77400
C182        C  0.23863971  0.24730051  0.76202791     0.77700
C183        C  0.13542800  0.25250130  0.72493618     0.78900
C184        C  0.15796182  0.17727399  0.83923653     0.77900
Zn185      Zn  0.31103089  0.23249480  0.17041776     1.49700
Zn186      Zn  0.33910349  0.27611712  0.22656198     1.49400
Zn187      Zn  0.38246197  0.22898192  0.18846390     1.49100
Zn188      Zn  0.35746844  0.27311646  0.12509495     1.49500
O189        O  0.34799930  0.25278729  0.17740363    -1.83400
O190        O  0.28090794  0.23666959  0.22107334    -0.74000
O191        O  0.36031089  0.26085324  0.27757796    -0.73800
O192        O  0.37074420  0.19280448  0.16842079    -0.73300
O193        O  0.29505606  0.27464852  0.25017191    -0.74000
O194        O  0.32037125  0.19469873  0.15939439    -0.73600
O195        O  0.38927115  0.22721213  0.25539073    -0.74200
O196        O  0.39810515  0.26254386  0.09879195    -0.73600
O197        O  0.35370143  0.31321628  0.21384862    -0.74300
O198        O  0.42030200  0.23747519  0.15006763    -0.73700
O199        O  0.36280321  0.31088851  0.14135774    -0.74200
O200        O  0.32417060  0.26881740  0.07935268    -0.74100
O201        O  0.29073983  0.24360935  0.11515892    -0.73900
C202        C  0.27641001  0.25542119  0.24820579     0.77900
C203        C  0.37706955  0.24111238  0.28591308     0.78400
C204        C  0.34545819  0.18208667  0.15778905     0.77400
C205        C  0.42119951  0.24974582  0.11298586     0.77700
C206        C  0.36212077  0.32388532  0.17741076     0.78900
C207        C  0.29876105  0.25653816  0.08097654     0.77900
Zn208      Zn  0.31870299  0.97549618  0.08532493     1.49700
Zn209      Zn  0.38842754  0.98849985  0.05760811     1.49400
Zn210      Zn  0.33312156  0.02966863  0.03820746     1.49100
Zn211      Zn  0.35834026  0.01969533  0.13394383     1.49500
O212        O  0.34963683  0.00294271  0.07823057    -1.83400
O213        O  0.33948226  0.93925103  0.08416501    -0.74000
O214        O  0.39385907  0.99939608  0.99328000    -0.73800
O215        O  0.29160050  0.01968328  0.01384287    -0.73300
O216        O  0.38619461  0.94900949  0.05949454    -0.74000
O217        O  0.28582195  0.97841279  0.03613844    -0.73600
O218        O  0.35767014  0.02955064  0.98289771    -0.74200
O219        O  0.35725409  0.05828587  0.12839776    -0.73600
O220        O  0.42485293  0.99785646  0.09857358    -0.74300
O221        O  0.33349617  0.06643605  0.06469659    -0.73700
O222        O  0.39951608  0.01159358  0.15799543    -0.74200
O223        O  0.32677940  0.01074197  0.17818314    -0.74100
O224        O  0.29743016  0.98121271  0.14460050    -0.73900
C225        C  0.36633739  0.93221910  0.07192321     0.77900
C226        C  0.37936887  0.01541182  0.96820696     0.78400
C227        C  0.27743306  0.99786931  0.01215064     0.77400
C228        C  0.34581449  0.07429545  0.10071972     0.77700
C229        C  0.42441052  0.00502304  0.13928537     0.78900
C230        C  0.30343352  0.99593900  0.17777576     0.77900
Zn231      Zn  0.40836834  0.26623780  0.63303034     1.49700
Zn232      Zn  0.38144652  0.22265891  0.56930516     1.49400
Zn233      Zn  0.42590528  0.26871984  0.53243297     1.49100
Zn234      Zn  0.45291780  0.22401399  0.58775658     1.49500
O235        O  0.41672972  0.24537856  0.58108849    -1.83400
O236        O  0.36709096  0.25746772  0.65799293    -0.74000
O237        O  0.37433096  0.22162702  0.50244260    -0.73800
O238        O  0.41146626  0.30580363  0.54419935    -0.73300
O239        O  0.34406345  0.23340735  0.60629004    -0.74000
O240        O  0.40510937  0.30456554  0.61731866    -0.73600
O241        O  0.40548429  0.25385929  0.48051121    -0.74200
O242        O  0.48315089  0.22838644  0.53692780    -0.73600
O243        O  0.39105777  0.18573971  0.58934129    -0.74300
O244        O  0.46995546  0.26761793  0.51155397    -0.73700
O245        O  0.44159274  0.18625423  0.59697922    -0.74200
O246        O  0.47363238  0.23410085  0.64377939    -0.74100
O247        O  0.44071986  0.25995667  0.67951716    -0.73900
C248        C  0.34340025  0.24586352  0.64310734     0.77900
C249        C  0.38728237  0.23516051  0.47206468     0.78400
C250        C  0.40481173  0.31713497  0.58070291     0.77400
C251        C  0.48799317  0.24797748  0.51149548     0.77700
C252        C  0.41608478  0.17418438  0.59885924     0.78900
C253        C  0.46570389  0.24705151  0.67796913     0.77900
Zn254      Zn  0.41169384  0.97446646  0.61537522     1.49700
Zn255      Zn  0.38337565  0.01616965  0.68196631     1.49400
Zn256      Zn  0.43028157  0.97027574  0.71584273     1.49100
Zn257      Zn  0.45493973  0.01674847  0.66478002     1.49500
O258        O  0.41941197  0.99441987  0.66877330    -1.83400
O259        O  0.37090215  0.98434381  0.58882125    -0.74000
O260        O  0.37684320  0.01532173  0.74976968    -0.73800
O261        O  0.41596150  0.93361062  0.70259944    -0.73300
O262        O  0.34659800  0.00683880  0.64142033    -0.74000
O263        O  0.40750016  0.93562975  0.62992026    -0.73600
O264        O  0.40946827  0.98357946  0.76842568    -0.74200
O265        O  0.48484940  0.01203443  0.71567579    -0.73600
O266        O  0.39236779  0.05381720  0.66541251    -0.74300
O267        O  0.47485907  0.97149307  0.73704445    -0.73700
O268        O  0.44298229  0.05448406  0.65932690    -0.74200
O269        O  0.47623704  0.00875141  0.60833668    -0.74100
O270        O  0.44506364  0.98223713  0.57047406    -0.73900
C271        C  0.34690235  0.99571454  0.60327287     0.77900
C272        C  0.39085435  0.00159375  0.77911221     0.78400
C273        C  0.40794524  0.92272995  0.66631381     0.77400
C274        C  0.49146077  0.99203063  0.73919289     0.77700
C275        C  0.41722834  0.06612158  0.65799313     0.78900
C276        C  0.46929774  0.99614358  0.57334506     0.77900
Zn277      Zn  0.58543463  0.97028245  0.28629883     1.49700
Zn278      Zn  0.56745343  0.02370359  0.33202065     1.49400
Zn279      Zn  0.60569223  0.98017890  0.38559048     1.49100
Zn280      Zn  0.63834205  0.01146343  0.31073581     1.49500
O281        O  0.59925659  0.99665272  0.32858590    -1.83400
O282        O  0.54472264  0.97927828  0.25896339    -0.74000
O283        O  0.54446563  0.01938298  0.39025654    -0.73800
O284        O  0.59782664  0.94195231  0.38223840    -0.73300
O285        O  0.53638667  0.01996107  0.28169522    -0.74000
O286        O  0.58407292  0.93413036  0.31253240    -0.73600
O287        O  0.57552729  0.99329625  0.42895787    -0.74200
O288        O  0.67379470  0.00142032  0.35234437    -0.73600
O289        O  0.58690018  0.06000698  0.32870458    -0.74300
O290        O  0.64843854  0.98421512  0.40925867    -0.73700
O291        O  0.63553507  0.05057319  0.31378552    -0.74200
O292        O  0.64547281  0.00237380  0.24624748    -0.74100
O293        O  0.61198989  0.97046384  0.23320530    -0.73900
C294        C  0.52951842  0.00051602  0.25700632     0.77900
C295        C  0.55136823  0.00705681  0.42581606     0.78400
C296        C  0.58948827  0.92625631  0.35189965     0.77400
C297        C  0.67333576  0.99203942  0.39174119     0.77700
C298        C  0.61441338  0.06724360  0.32101735     0.78900
C299        C  0.63274058  0.98605325  0.21998269     0.77900
Zn300      Zn  0.60294896  0.76181560  0.36855077     1.49700
Zn301      Zn  0.57838955  0.77363689  0.46391935     1.49400
Zn302      Zn  0.56482095  0.71893941  0.42184316     1.49100
Zn303      Zn  0.63552006  0.73475561  0.44633581     1.49500
O304        O  0.59545243  0.74681713  0.42585254    -1.83400
O305        O  0.59988830  0.80057125  0.37021669    -0.74000
O306        O  0.53732434  0.76400094  0.48934957    -0.73800
O307        O  0.54063237  0.72337053  0.36367277    -0.73300
O308        O  0.57764705  0.80919815  0.43476184    -0.74000
O309        O  0.57064291  0.75130998  0.32730470    -0.73600
O310        O  0.53356201  0.72177503  0.47252475    -0.74200
O311        O  0.63488258  0.69513609  0.44487891    -0.73600
O312        O  0.60295206  0.77503529  0.51857690    -0.74300
O313        O  0.58745741  0.68371856  0.42515266    -0.73700
O314        O  0.64163412  0.74689155  0.51046082    -0.74200
O315        O  0.67098048  0.74536624  0.40412297    -0.74100
O316        O  0.64384023  0.75286923  0.34315415    -0.73900
C317        C  0.58811215  0.81671353  0.39732956     0.77900
C318        C  0.52437945  0.74182569  0.49410962     0.78400
C319        C  0.54676449  0.73723025  0.32940572     0.77400
C320        C  0.61510195  0.67762508  0.43518868     0.77700
C321        C  0.62579879  0.76266754  0.53412738     0.78900
C322        C  0.66948936  0.74910967  0.36212287     0.77900
Zn323      Zn  0.63725235  0.97932656  0.93454104     1.49700
Zn324      Zn  0.68052643  0.02813609  0.96446040     1.49400
Zn325      Zn  0.70807670  0.98254433  0.91332003     1.49100
Zn326      Zn  0.66094215  0.02221833  0.86439389     1.49500
O327        O  0.67106415  0.00303233  0.91849688    -1.83400
O328        O  0.63078598  0.98157055  0.00211615    -0.74000
O329        O  0.72441637  0.02841354  0.98647897    -0.73800
O330        O  0.69947791  0.94415856  0.90968028    -0.73300
O331        O  0.65948008  0.01635238  0.01775908    -0.74000
O332        O  0.64931433  0.94193260  0.92052146    -0.73600
O333        O  0.73961933  0.98989805  0.96093004    -0.74200
O334        O  0.69345993  0.01479478  0.81704591    -0.73600
O335        O  0.66620438  0.06412829  0.94904697    -0.74300
O336        O  0.72621919  0.99006817  0.85534482    -0.73700
O337        O  0.65454041  0.06136856  0.87732714    -0.74200
O338        O  0.62007653  0.01006454  0.84149568    -0.74100
O339        O  0.59909649  0.98591858  0.89512404    -0.73900
C340        C  0.64247892  0.99756957  0.03009019     0.77900
C341        C  0.74375216  0.00974983  0.98579400     0.78400
C342        C  0.67476431  0.93103243  0.91118064     0.77400
C343        C  0.71817428  0.00141532  0.81963161     0.77700
C344        C  0.65650349  0.07455051  0.91328395     0.78900
C345        C  0.59746338  0.99720896  0.85713114     0.77900
Zn346      Zn  0.69006848  0.77828886  0.79601092     1.49700
Zn347      Zn  0.70178742  0.72343937  0.83573833     1.49400
Zn348      Zn  0.66384548  0.76608417  0.89052138     1.49100
Zn349      Zn  0.63213824  0.73977877  0.81170919     1.49500
O350        O  0.67178205  0.75162810  0.83314288    -1.83400
O351        O  0.73295036  0.76919450  0.77639352    -0.74000
O352        O  0.72593982  0.72754330  0.89314077    -0.73800
O353        O  0.66562070  0.80525919  0.88858477    -0.73300
O354        O  0.73234289  0.72598620  0.78368745    -0.74000
O355        O  0.68830782  0.81438622  0.82429824    -0.73600
O356        O  0.69609997  0.75458785  0.93203888    -0.74200
O357        O  0.59611349  0.75084592  0.85239055    -0.73600
O358        O  0.67901421  0.68844733  0.83527088    -0.74300
O359        O  0.62277329  0.75607546  0.91452256    -0.73700
O360        O  0.63203616  0.70025763  0.81440721    -0.74200
O361        O  0.62789246  0.75109394  0.74719352    -0.74100
O362        O  0.66793988  0.77781575  0.73842616    -0.73900
C363        C  0.74392864  0.74674664  0.76681122     0.77900
C364        C  0.71986564  0.74038707  0.92840988     0.78400
C365        C  0.67685916  0.82169936  0.86126048     0.77400
C366        C  0.59726464  0.75322319  0.89467697     0.77700
C367        C  0.65132059  0.68262062  0.82542354     0.78900
C368        C  0.64492318  0.76561365  0.72289283     0.77900
Zn369      Zn  0.85589190  0.77014203  0.12479222     1.49700
Zn370      Zn  0.88359507  0.72580854  0.18580025     1.49400
Zn371      Zn  0.84098254  0.77131534  0.22805107     1.49100
Zn372      Zn  0.81116850  0.72840414  0.17090373     1.49500
O373        O  0.84817674  0.74902117  0.17711114    -1.83400
O374        O  0.89702637  0.76159156  0.09778291    -0.74000
O375        O  0.89352941  0.72350798  0.25148575    -0.73800
O376        O  0.85485253  0.80859723  0.21557468    -0.73300
O377        O  0.92011143  0.73505864  0.14577258    -0.74000
O378        O  0.85848046  0.80829460  0.14178818    -0.73600
O379        O  0.86355248  0.75538373  0.27769152    -0.74200
O380        O  0.78043483  0.73371854  0.22039850    -0.73600
O381        O  0.87179967  0.68959738  0.16748997    -0.74300
O382        O  0.79745633  0.76992152  0.25266307    -0.73700
O383        O  0.82098012  0.69051912  0.16362557    -0.74200
O384        O  0.79113603  0.73730857  0.11407734    -0.74100
O385        O  0.82344611  0.76353754  0.07814734    -0.73900
C386        C  0.92045507  0.74851572  0.10992244     0.77900
C387        C  0.88184457  0.73635633  0.28357540     0.78400
C388        C  0.85989951  0.82037897  0.17881409     0.77400
C389        C  0.77738961  0.75189892  0.24900197     0.77700
C390        C  0.84627683  0.67832401  0.16050282     0.78900
C391        C  0.79892873  0.74997933  0.07951381     0.77900
Zn392      Zn  0.81941539  0.47326808  0.08722419     1.49700
Zn393      Zn  0.88916373  0.48662515  0.05843586     1.49400
Zn394      Zn  0.83301188  0.52700466  0.04115980     1.49100
Zn395      Zn  0.85982437  0.51634287  0.13636931     1.49500
O396        O  0.85046723  0.50044652  0.08022382    -1.83400
O397        O  0.84086954  0.43758497  0.08781625    -0.74000
O398        O  0.89351727  0.49785768  0.99410740    -0.73800
O399        O  0.79018450  0.51788465  0.02135967    -0.73300
O400        O  0.88738702  0.44708559  0.06165856    -0.74000
O401        O  0.78681135  0.47542656  0.03686626    -0.73600
O402        O  0.85627609  0.52711225  0.98425511    -0.74200
O403        O  0.85753353  0.55469498  0.13187641    -0.73600
O404        O  0.92626109  0.49706687  0.09749278    -0.74300
O405        O  0.83407070  0.56326495  0.06810778    -0.73700
O406        O  0.90177940  0.50932608  0.15853310    -0.74200
O407        O  0.82907869  0.50700958  0.18155242    -0.74100
O408        O  0.79778614  0.47960022  0.14660286    -0.73900
C409        C  0.86771825  0.43052204  0.07567248     0.77900
C410        C  0.87854477  0.51369548  0.96929046     0.78400
C411        C  0.77670619  0.49588777  0.01700523     0.77400
C412        C  0.84595319  0.57081346  0.10455205     0.77700
C413        C  0.92651978  0.50399176  0.13832211     0.78900
C414        C  0.80470846  0.49346576  0.18052054     0.77900
Zn415      Zn  0.91163409  0.47433650  0.61600183     1.49700
Zn416      Zn  0.93039919  0.47106323  0.71631044     1.49400
Zn417      Zn  0.95618807  0.51630843  0.66198252     1.49100
Zn418      Zn  0.88554727  0.51783316  0.68240648     1.49500
O419        O  0.92024623  0.49481177  0.66854986    -1.83400
O420        O  0.90827084  0.43568296  0.63124807    -0.74000
O421        O  0.97474021  0.47267700  0.73695755    -0.73800
O422        O  0.97735892  0.50608649  0.60672460    -0.73300
O423        O  0.91673867  0.43401460  0.70391386    -0.74000
O424        O  0.94451248  0.48090550  0.56954159    -0.73600
O425        O  0.98587472  0.51258628  0.71306043    -0.74200
O426        O  0.89500007  0.55477746  0.66200616    -0.73600
O427        O  0.90958643  0.48463131  0.76884810    -0.74300
O428        O  0.94525812  0.55393963  0.65204508    -0.73700
O429        O  0.87979076  0.51834173  0.75041313    -0.74200
O430        O  0.84795391  0.50805350  0.64491742    -0.74100
O431        O  0.87000536  0.48399168  0.59198367    -0.73900
C432        C  0.90910495  0.42288217  0.66767769     0.77900
C433        C  0.99189471  0.49289686  0.73763935     0.78400
C434        C  0.96974994  0.49347706  0.57206712     0.77400
C435        C  0.91985115  0.56613552  0.65104295     0.77700
C436        C  0.89239731  0.50363303  0.77969553     0.78900
C437        C  0.84682665  0.49608025  0.60761799     0.77900
Zn438      Zn  0.90956226  0.76783183  0.63099447     1.49700
Zn439      Zn  0.95560544  0.72518023  0.58657517     1.49400
Zn440      Zn  0.88451116  0.72316845  0.56666819     1.49100
Zn441      Zn  0.93007047  0.76994328  0.53194806     1.49500
O442        O  0.91926895  0.74647299  0.57983605    -1.83400
O443        O  0.94144362  0.76167584  0.67857614    -0.74000
O444        O  0.94550542  0.68695284  0.59148968    -0.73800
O445        O  0.84677445  0.73165752  0.60579163    -0.73300
O446        O  0.97348956  0.73410904  0.64458670    -0.74000
O447        O  0.86856131  0.75785717  0.65574756    -0.73600
O448        O  0.89507469  0.68593678  0.58382274    -0.74200
O449        O  0.91189513  0.75416217  0.47944186    -0.73600
O450        O  0.98794434  0.73112365  0.53890397    -0.74300
O451        O  0.87872215  0.72291994  0.49905975    -0.73700
O452        O  0.97481336  0.77036547  0.51413029    -0.74200
O453        O  0.91468892  0.80677636  0.54135857    -0.74100
O454        O  0.90510536  0.80631517  0.61380359    -0.73900
C455        C  0.96563276  0.74763698  0.67811570     0.77900
C456        C  0.92032530  0.67441894  0.59209989     0.78400
C457        C  0.84571001  0.74461096  0.64216836     0.77400
C458        C  0.89359772  0.73577166  0.46955273     0.77700
C459        C  0.99339771  0.75113788  0.51477001     0.78900
C460        C  0.90628149  0.81845417  0.57669286     0.77900
Zn461      Zn  0.66256472  0.48272760  0.36585235     1.49700
Zn462      Zn  0.63149896  0.51202290  0.44268607     1.49400
Zn463      Zn  0.68451201  0.47052889  0.46233456     1.49100
Zn464      Zn  0.70206872  0.52500417  0.41967500     1.49500
O465        O  0.67031756  0.49797595  0.42282677    -1.83400
O466        O  0.62238183  0.49405857  0.34042424    -0.74000
O467        O  0.62636303  0.50311720  0.50780829    -0.73800
O468        O  0.67993584  0.43452726  0.43632769    -0.73300
O469        O  0.59557307  0.50178028  0.40182140    -0.74000
O470        O  0.66315301  0.44352732  0.36833809    -0.73600
O471        O  0.66180156  0.47241846  0.51909494    -0.74200
O472        O  0.73289904  0.51955177  0.47074455    -0.73600
O473        O  0.63363276  0.55119868  0.43951661    -0.74300
O474        O  0.72779901  0.47678096  0.48251048    -0.73700
O475        O  0.68186934  0.56165361  0.42367782    -0.74200
O476        O  0.72570036  0.52003042  0.36100691    -0.74100
O477        O  0.69591949  0.49179839  0.32517197    -0.73900
C478        C  0.59700231  0.49853774  0.35973551     0.77900
C479        C  0.64094070  0.48751163  0.53344415     0.78400
C480        C  0.67114241  0.42714524  0.39802815     0.77400
C481        C  0.74182163  0.49830332  0.48932622     0.77700
C482        C  0.65415725  0.56837599  0.43197821     0.78900
C483        C  0.72000724  0.50565079  0.32719162     0.77900
Zn484      Zn  0.68549276  0.27275214  0.29512833     1.49700
Zn485      Zn  0.65943373  0.26112235  0.38890488     1.49400
Zn486      Zn  0.62768499  0.23406060  0.31018603     1.49100
Zn487      Zn  0.69771662  0.21872916  0.33421224     1.49500
O488        O  0.66711725  0.24627105  0.33195321    -1.83400
O489        O  0.68104807  0.30889936  0.32080144    -0.74000
O490        O  0.61900040  0.25039771  0.41385751    -0.73800
O491        O  0.62300826  0.24618601  0.24580351    -0.73300
O492        O  0.66054867  0.30030110  0.38657654    -0.74000
O493        O  0.66487340  0.27083854  0.23704258    -0.73600
O494        O  0.59197660  0.24416848  0.35219204    -0.74200
O495        O  0.67607962  0.18369125  0.33084331    -0.73600
O496        O  0.69220109  0.25049587  0.42955546    -0.74300
O497        O  0.62856102  0.19438458  0.31083292    -0.73700
O498        O  0.72172439  0.22256381  0.39219175    -0.74200
O499        O  0.72808852  0.22197997  0.28255426    -0.74100
O500        O  0.72960897  0.26537708  0.27984065    -0.73900
C501        C  0.67038549  0.31660497  0.35794205     0.77900
C502        C  0.59348765  0.24679201  0.39443485     0.78400
C503        C  0.64121988  0.25964016  0.22150044     0.77400
C504        C  0.64874581  0.17717152  0.32042747     0.77700
C505        C  0.71581707  0.23607781  0.42685343     0.78900
C506        C  0.74050153  0.24315397  0.26899310     0.77900
Zn507      Zn  0.63353559  0.47881723  0.81785901     1.49700
Zn508      Zn  0.58818665  0.52706083  0.78485084     1.49400
Zn509      Zn  0.56198186  0.48155719  0.83770024     1.49100
Zn510      Zn  0.60850937  0.52236433  0.88407856     1.49500
O511        O  0.59882475  0.50228354  0.83138684    -1.83400
O512        O  0.64270881  0.48258915  0.75113478    -0.74000
O513        O  0.54457119  0.52447597  0.76082151    -0.73800
O514        O  0.57185631  0.44382424  0.84664677    -0.73300
O515        O  0.61225567  0.51616153  0.73354788    -0.74000
O516        O  0.62129266  0.44098685  0.82994475    -0.73600
O517        O  0.53193214  0.48539045  0.78658309    -0.74200
O518        O  0.57430987  0.51811610  0.92834699    -0.73600
O519        O  0.59958958  0.56437208  0.79958968    -0.74300
O520        O  0.54150572  0.49199018  0.89317709    -0.73700
O521        O  0.61567260  0.56067148  0.86931317    -0.74200
O522        O  0.64800927  0.51022072  0.91161227    -0.74100
O523        O  0.67038911  0.48521007  0.86065324    -0.73900
C524        C  0.63135677  0.49856479  0.72265743     0.77900
C525        C  0.52677611  0.50468257  0.76069697     0.78400
C526        C  0.59625842  0.43047747  0.84258139     0.77400
C527        C  0.54916559  0.50540719  0.92692959     0.77700
C528        C  0.61128775  0.57435538  0.83443204     0.78900
C529        C  0.67098862  0.49703974  0.89818879     0.77900
Zn530      Zn  0.60357893  0.26526595  0.86481913     1.49700
Zn531      Zn  0.57917133  0.27833448  0.95966586     1.49400
Zn532      Zn  0.56440192  0.22381635  0.92021776     1.49100
Zn533      Zn  0.63460860  0.23806100  0.94329796     1.49500
O534        O  0.59549528  0.25109681  0.92237664    -1.83400
O535        O  0.60316234  0.30444887  0.86591164    -0.74000
O536        O  0.53618914  0.27053968  0.98043849    -0.73800
O537        O  0.54003798  0.22879682  0.86327169    -0.73300
O538        O  0.58225720  0.31419873  0.93102760    -0.74000
O539        O  0.57096643  0.25456549  0.82367314    -0.73600
O540        O  0.53454485  0.22730649  0.97313417    -0.74200
O541        O  0.63337094  0.19872400  0.93864615    -0.73600
O542        O  0.60190886  0.27737655  0.01656541    -0.74300
O543        O  0.58579043  0.18810245  0.91867695    -0.73700
O544        O  0.63929813  0.24803680  0.00820992    -0.74200
O545        O  0.67069254  0.24926323  0.90303667    -0.74100
O546        O  0.64400063  0.25408913  0.84070675    -0.73900
C547        C  0.59314787  0.32122919  0.89352854     0.77900
C548        C  0.52413958  0.24848648  0.99011079     0.78400
C549        C  0.54661764  0.24116589  0.82762697     0.77400
C550        C  0.61349745  0.18168032  0.92727871     0.77700
C551        C  0.62356090  0.26357553  0.03241887     0.78900
C552        C  0.66943480  0.25133237  0.86071561     0.77900
Zn553      Zn  0.09076531  0.02392193  0.78283101     1.49700
Zn554      Zn  0.06333080  0.97825570  0.83540310     1.49400
Zn555      Zn  0.13507397  0.97657257  0.81403757     1.49100
Zn556      Zn  0.10969700  0.01676135  0.88389623     1.49500
O557        O  0.10004137  0.99886580  0.82912478    -1.83400
O558        O  0.04650802  0.02288763  0.76052247    -0.74000
O559        O  0.07399924  0.94075601  0.84242381    -0.73800
O560        O  0.14162160  0.97795912  0.74662965    -0.73300
O561        O  0.03304800  0.98360501  0.78556874    -0.74000
O562        O  0.11176917  0.01177749  0.72893776    -0.73600
O563        O  0.12418537  0.93903362  0.82932250    -0.74200
O564        O  0.14861368  0.00269983  0.91118299    -0.73600
O565        O  0.04257190  0.98699967  0.89165896    -0.74300
O566        O  0.17288616  0.98543132  0.85309379    -0.73700
O567        O  0.07546289  0.01223217  0.92808682    -0.74200
O568        O  0.11775732  0.05510689  0.87135214    -0.74100
O569        O  0.10572185  0.06007863  0.80003785    -0.73900
C570        C  0.02824296  0.00335377  0.76059051     0.77900
C571        C  0.09903452  0.92814247  0.84037474     0.78400
C572        C  0.12913594  0.99295162  0.71774104     0.77400
C573        C  0.17267815  0.99315837  0.89359077     0.77700
C574        C  0.05027277  0.99965396  0.92617866     0.78900
C575        C  0.11604707  0.06931379  0.83652965     0.77900
Zn576      Zn  0.07997387  0.77723873  0.95884893     1.49700
Zn577      Zn  0.10239826  0.76357394  0.86296950     1.49400
Zn578      Zn  0.13515690  0.73740815  0.93928151     1.49100
Zn579      Zn  0.06470989  0.72223446  0.92041536     1.49500
O580        O  0.09545929  0.74982017  0.92084070    -1.83400
O581        O  0.08409164  0.81286982  0.93016991    -0.74000
O582        O  0.14194680  0.75217143  0.83612069    -0.73800
O583        O  0.14086780  0.74762049  0.00328681    -0.73300
O584        O  0.10258633  0.80254850  0.86383611    -0.74000
O585        O  0.10324353  0.77620169  0.01571064    -0.73600
O586        O  0.17006170  0.74856201  0.89714658    -0.74200
O587        O  0.08653507  0.68668189  0.92068480    -0.73600
O588        O  0.06872529  0.75301546  0.82443168    -0.74300
O589        O  0.13457502  0.69811047  0.93658069    -0.73700
O590        O  0.03929094  0.72602040  0.86396337    -0.74200
O591        O  0.03540899  0.72655586  0.97346326    -0.74100
O592        O  0.03655661  0.76997396  0.97904410    -0.73900
C593        C  0.09417369  0.81959065  0.89205587     0.77900
C594        C  0.16791906  0.75002863  0.85483665     0.78400
C595        C  0.12563787  0.76243841  0.02937476     0.77400
C596        C  0.11454292  0.68066745  0.92808233     0.77700
C597        C  0.04489794  0.73899824  0.82859870     0.78900
C598        C  0.02465104  0.74792658  0.98921115     0.77900
Zn599      Zn  0.13018306  0.00775987  0.43961473     1.49700
Zn600      Zn  0.20024833  0.02246647  0.41572712     1.49400
Zn601      Zn  0.18603448  0.96737927  0.45523348     1.49100
Zn602      Zn  0.16036609  0.98104528  0.36129201     1.49500
O603        O  0.16932031  0.99503881  0.41863705    -1.83400
O604        O  0.13124374  0.04726317  0.43795206    -0.74000
O605        O  0.23175671  0.01801356  0.46616857    -0.73800
O606        O  0.16339409  0.96739733  0.51279032    -0.73300
O607        O  0.17907111  0.05818859  0.41997598    -0.74000
O608        O  0.12558801  0.99625951  0.50372049    -0.73600
O609        O  0.22959019  0.97483965  0.47479340    -0.74200
O610        O  0.15875703  0.94190863  0.36205698    -0.73600
O611        O  0.22315629  0.01833884  0.35680636    -0.74300
O612        O  0.18278636  0.93207943  0.42496909    -0.73700
O613        O  0.19376810  0.98988031  0.32077639    -0.74200
O614        O  0.12107111  0.99421114  0.33626051    -0.74100
O615        O  0.09421396  0.99760672  0.39856941    -0.73900
C616        C  0.15145909  0.06458227  0.42930080     0.77900
C617        C  0.24232379  0.99681309  0.48291297     0.78400
C618        C  0.14120680  0.98074617  0.52827496     0.77400
C619        C  0.17040584  0.92515146  0.38842067     0.77700
C620        C  0.21748297  0.00415670  0.32278263     0.78900
C621        C  0.09559168  0.99671703  0.35615739     0.77900
Zn622      Zn  0.20535721  0.76559944  0.33561766     1.49700
Zn623      Zn  0.13437344  0.76659275  0.31419862     1.49400
Zn624      Zn  0.18045672  0.71962498  0.28240164     1.49100
Zn625      Zn  0.16102842  0.72360753  0.38137321     1.49500
O626        O  0.16953891  0.74400106  0.32876900    -1.83400
O627        O  0.19448156  0.80311985  0.34242813    -0.74000
O628        O  0.12593791  0.76356917  0.24712179    -0.73800
O629        O  0.22445596  0.72198439  0.26118596    -0.92500
O630        O  0.14495448  0.80474512  0.32623237    -0.74000
O631        O  0.23500577  0.76188399  0.28526887    -0.73600
O632        O  0.15831598  0.73149840  0.22988722    -0.74200
O633        O  0.15361682  0.68529529  0.36666120    -0.73600
O634        O  0.09815638  0.75888826  0.35680373    -0.74300
O635        O  0.16805091  0.68244815  0.29615723    -0.73700
O636        O  0.12216209  0.73613747  0.40948244    -0.74200
O637        O  0.19583481  0.72761620  0.42486906    -0.74100
O638        O  0.22671573  0.75593392  0.39100921    -0.73900
C639        C  0.16972542  0.81594479  0.33810276     0.77900
C640        C  0.13895745  0.74876661  0.21846561     0.78400
C641        C  0.24129199  0.74237369  0.26069760     0.77400
C642        C  0.15719414  0.67199016  0.33123678     0.77700
C643        C  0.09855555  0.74832335  0.39550529     0.78900
C644        C  0.22025734  0.74133337  0.42392155     0.77900
Zn645      Zn  0.85479414  0.26482640  0.62049967     1.49700
Zn646      Zn  0.88001127  0.22229406  0.68904903     1.49400
Zn647      Zn  0.83629039  0.27006793  0.72087099     1.49100
Zn648      Zn  0.80851670  0.22544158  0.66760012     1.49500
O649        O  0.84551302  0.24552503  0.67402864    -1.83400
O650        O  0.89456369  0.25255786  0.59543769    -0.74000
O651        O  0.88759660  0.22398207  0.75633844    -0.73800
O652        O  0.85383643  0.30588618  0.70727191    -0.73300
O653        O  0.91738274  0.22901049  0.64819860    -0.74000
O654        O  0.86224568  0.30312667  0.63462579    -0.73600
O655        O  0.85499993  0.25579765  0.77484236    -0.74200
O656        O  0.77878763  0.23107237  0.71802679    -0.73600
O657        O  0.86797487  0.18505803  0.67536645    -0.74300
O658        O  0.79170860  0.27092761  0.74021641    -0.73700
O659        O  0.81812175  0.18752835  0.66091531    -0.74200
O660        O  0.78826086  0.23477984  0.61098565    -0.74100
O661        O  0.82198849  0.25914310  0.57381637    -0.73900
C662        C  0.91775516  0.24007376  0.60995936     0.77900
C663        C  0.87358895  0.23774795  0.78542988     0.78400
C664        C  0.86291753  0.31609061  0.67084806     0.77400
C665        C  0.77373199  0.25124236  0.74179404     0.77700
C666        C  0.84279386  0.17442824  0.66396302     0.78900
C667        C  0.79668938  0.24670240  0.57595436     0.77900
Zn668      Zn  0.88877790  0.98433557  0.55860168     1.49700
Zn669      Zn  0.83171236  0.02403571  0.54307625     1.49400
Zn670      Zn  0.81859995  0.96872735  0.58077365     1.49100
Zn671      Zn  0.85607683  0.01018011  0.63751387     1.49500
O672        O  0.84908434  0.99647436  0.57937616    -1.83400
O673        O  0.89378631  0.99750070  0.49508516    -0.74000
O674        O  0.79022910  0.01483424  0.51808355    -0.73800
O675        O  0.84078498  0.93363606  0.58010668    -0.73300
O676        O  0.85602039  0.02659844  0.48833911    -0.74000
O677        O  0.88801930  0.94446485  0.55826771    -0.73600
O678        O  0.78862444  0.97182213  0.52873078    -0.74200
O679        O  0.82310638  0.99867294  0.67741101    -0.73600
O680        O  0.83165192  0.05912910  0.57360525    -0.74300
O681        O  0.79316711  0.97274680  0.63670824    -0.73700
O682        O  0.85415912  0.04919781  0.63748832    -0.74200
O683        O  0.89673484  0.00062661  0.66267196    -0.74100
O684        O  0.92419871  0.99492462  0.60143272    -0.73900
C685        C  0.87831940  0.01393486  0.47199048     0.77900
C686        C  0.77832128  0.99253670  0.51010385     0.78400
C687        C  0.86813776  0.92728899  0.56935993     0.77400
C688        C  0.79888444  0.98524282  0.67238138     0.77700
C689        C  0.84276924  0.06597086  0.61095245     0.78900
C690        C  0.92253883  0.99801078  0.64360853     0.77900
Zn691      Zn  0.92616888  0.27330215  0.03500038     1.49700
Zn692      Zn  0.95296272  0.22810958  0.08821367     1.49400
Zn693      Zn  0.90842651  0.26979471  0.13641094     1.49100
Zn694      Zn  0.88127338  0.22691141  0.07050940     1.49500
O695        O  0.91668981  0.24959883  0.08315980    -1.83400
O696        O  0.97036364  0.27286491  0.01400597    -0.74000
O697        O  0.97268911  0.23584369  0.14562362    -0.73800
O698        O  0.90353121  0.30873407  0.12124939    -0.73300
O699        O  0.98419800  0.23392539  0.03943649    -0.74000
O700        O  0.91251484  0.31010343  0.04852736    -0.73600
O701        O  0.94141530  0.26254245  0.18266825    -0.74200
O702        O  0.84436901  0.23548818  0.11063230    -0.73600
O703        O  0.94231313  0.19019062  0.09304201    -0.74300
O704        O  0.86816095  0.25863697  0.16267132    -0.73700
O705        O  0.89171341  0.18954942  0.08733525    -0.74200
O706        O  0.87343580  0.22733638  0.00329432    -0.74100
O707        O  0.90539040  0.25922008  0.98244075    -0.73900
C708        C  0.98907273  0.25371339  0.01455514     0.77900
C709        C  0.96550232  0.24839102  0.18052141     0.78400
C710        C  0.90471267  0.32137399  0.08456418     0.77400
C711        C  0.84453638  0.24644890  0.14885216     0.77700
C712        C  0.91701646  0.17790025  0.09480100     0.78900
C713        C  0.88682818  0.24087872  0.97322329     0.77900
Zn714      Zn  0.95473083  0.02040474  0.16504951     1.49700
Zn715      Zn  0.92922983  0.97486251  0.21809237     1.49400
Zn716      Zn  0.88378555  0.02151491  0.18618141     1.49100
Zn717      Zn  0.90960278  0.97894821  0.11972423     1.49500
O718        O  0.91873205  0.99908458  0.17172769    -1.83400
O719        O  0.98446479  0.01635589  0.21611323    -0.74000
O720        O  0.91014471  0.98856738  0.27131903    -0.73800
O721        O  0.89351985  0.05873362  0.16792812    -0.73300
O722        O  0.97374312  0.97561861  0.23658135    -0.74000
O723        O  0.94351581  0.05793234  0.15522402    -0.73600
O724        O  0.87805004  0.02094192  0.25415659    -0.74200
O725        O  0.87138316  0.99296119  0.09163394    -0.73600
O726        O  0.91334837  0.93846645  0.20693859    -0.74300
O727        O  0.84653222  0.01283939  0.14658735    -0.73700
O728        O  0.90036367  0.94114873  0.13587473    -0.74200
O729        O  0.94461635  0.98174776  0.07623820    -0.74100
O730        O  0.97591209  0.00968009  0.11013118    -0.73900
C731        C  0.99053746  0.99599633  0.23908033     0.77900
C732        C  0.89222305  0.00684796  0.28282505     0.78400
C733        C  0.91810325  0.07014492  0.15589855     0.77400
C734        C  0.84741332  0.00413179  0.10668036     0.77700
C735        C  0.90218575  0.92814021  0.17200525     0.78900
C736        C  0.96934262  0.99506399  0.07734334     0.77900
C737        C  0.94479400  0.11040698  0.12915697    -0.20500
C738        C  0.91728805  0.09781208  0.14070205    -0.08600
C739        C  0.88947083  0.11148396  0.13512083     0.30300
C740        C  0.88948034  0.13721557  0.11895941    -0.20500
C741        C  0.91708957  0.14988804  0.10803867    -0.08600
C742        C  0.94481288  0.13603696  0.11303134     0.30300
F743        F  0.97212474  0.14715728  0.10250963    -0.19100
H744        H  0.96655914  0.10039650  0.13251598     0.18700
H745        H  0.86779605  0.14736288  0.11567988     0.18700
F746        F  0.86220077  0.10008018  0.14495687    -0.19100
C747        C  0.86448683  0.02473886  0.34904037    -0.20500
C748        C  0.88982983  0.01183732  0.33097965    -0.08600
C749        C  0.91341010  0.00312392  0.35969363     0.30300
C750        C  0.91039402  0.00538792  0.40549892    -0.20500
C751        C  0.88411218  0.01661858  0.42386528    -0.08600
C752        C  0.86151848  0.02714686  0.39510967     0.30300
F753        F  0.83559847  0.03833078  0.41126484    -0.19100
H754        H  0.84638882  0.03198952  0.32766826     0.18700
H755        H  0.92826325  0.99750251  0.42664730     0.18700
F756        F  0.93941203  0.99201096  0.34369719    -0.19100
C757        C  0.90640528  0.23278200  0.85236773    -0.20500
C758        C  0.87731219  0.23279058  0.83313958    -0.08600
C759        C  0.85110220  0.23178713  0.86060424     0.30300
C760        C  0.85405767  0.23249242  0.90682444    -0.20500
C761        C  0.88310851  0.23478166  0.92589372    -0.08600
C762        C  0.90934488  0.23401947  0.89848617     0.30300
F763        F  0.93786195  0.23557707  0.91637674    -0.19100
H764        H  0.92671434  0.23360376  0.83172052     0.18700
H765        H  0.83371665  0.23295345  0.92743222     0.18700
F766        F  0.82258059  0.23130971  0.84254307    -0.19100
C767        C  0.82331351  0.13825191  0.61686368    -0.20500
C768        C  0.84230380  0.14655634  0.65176382    -0.08600
C769        C  0.86140258  0.12832863  0.67304618     0.30300
C770        C  0.86127902  0.10216107  0.65965718    -0.20500
C771        C  0.84254913  0.09381527  0.62432135    -0.08600
C772        C  0.82359380  0.11220803  0.60285466     0.30300
F773        F  0.80510503  0.10509466  0.56866595    -0.19100
H774        H  0.80866911  0.15211867  0.59971109     0.18700
H775        H  0.87610873  0.08844890  0.67680229     0.18700
F776        F  0.87974906  0.13569214  0.70724710    -0.19100
C777        C  0.04223916  0.01269766  0.26082584    -0.20500
C778        C  0.01710773  0.99635766  0.26981362    -0.08600
C779        C  0.01724182  0.98126718  0.30913579     0.30300
C780        C  0.04212708  0.98249670  0.33853370    -0.20500
C781        C  0.06761842  0.99815137  0.32861654    -0.08600
C782        C  0.06743593  0.01332523  0.28951354     0.30300
F783        F  0.09168484  0.02882196  0.27907256    -0.19100
H784        H  0.04265875  0.02463942  0.23103614     0.18700
H785        H  0.04198658  0.97046631  0.36822227     0.18700
F786        F  0.99326748  0.96546245  0.31940260    -0.19100
C787        C  0.14831895  0.88795727  0.34479754    -0.20500
C788        C  0.17005936  0.89721038  0.37555853    -0.08600
C789        C  0.19210834  0.87974264  0.39237878     0.30300
C790        C  0.19206811  0.85358000  0.37913797    -0.20500
C791        C  0.16992247  0.84413004  0.34927252    -0.08600
C792        C  0.14805892  0.86161554  0.33193478     0.30300
F793        F  0.12681164  0.85341438  0.30209473    -0.19100
H794        H  0.13131669  0.90109941  0.33092579     0.18700
H795        H  0.20921349  0.84055273  0.39295977     0.18700
F796        F  0.21418252  0.88799844  0.42088619    -0.19100
C797        C  0.14517273  0.73839709  0.09461234    -0.20500
C798        C  0.13156112  0.76111641  0.07756964    -0.08600
C799        C  0.11951581  0.77978613  0.10733808     0.30300
C800        C  0.12090030  0.77541342  0.15329004    -0.20500
C801        C  0.13404530  0.75232983  0.17017654    -0.08600
C802        C  0.14616441  0.73382992  0.14006328     0.30300
F803        F  0.15887086  0.71099903  0.15422119    -0.19100
H804        H  0.15398792  0.72340287  0.07261236     0.18700
H805        H  0.11208829  0.79023110  0.17560648     0.18700
F806        F  0.10637686  0.80218294  0.09212879    -0.19100
C807        C  0.00297191  0.98331378  0.96327054    -0.20500
C808        C  0.02973522  0.99866935  0.96506530    -0.08600
C809        C  0.03700084  0.01179037  0.00468482     0.30300
C810        C  0.01762523  0.00981364  0.04126901    -0.20500
C811        C  0.99061788  0.99479790  0.03927525    -0.08600
C812        C  0.98359885  0.98131075  0.99990650     0.30300
F813        F  0.95789326  0.96648855  0.99635030    -0.19100
H814        H  0.99690786  0.97271853  0.93338652     0.18700
H815        H  0.02371105  0.02042972  0.07112236     0.18700
F816        F  0.06269963  0.02661255  0.00830432    -0.19100
C817        C  0.94779318  0.99207549  0.71740425    -0.20500
C818        C  0.95042671  0.99886401  0.67217504    -0.08600
C819        C  0.97899281  0.00774777  0.65640414     0.30300
C820        C  0.00403656  0.01009604  0.68561386    -0.20500
C821        C  0.00123716  0.00302170  0.73066011    -0.08600
C822        C  0.97286882  0.99382619  0.74616411     0.30300
F823        F  0.96921760  0.98697179  0.78945639    -0.19100
H824        H  0.92614538  0.98522889  0.73066700     0.18700
H825        H  0.02584431  0.01688853  0.67283218     0.18700
F826        F  0.98255794  0.01472007  0.61318379    -0.19100
C827        C  0.10870974  0.99679717  0.64112028    -0.20500
C828        C  0.13209254  0.98779268  0.66960688    -0.08600
C829        C  0.15654941  0.97352620  0.65151876     0.30300
C830        C  0.15835262  0.96982514  0.60549051    -0.20500
C831        C  0.13572877  0.98013027  0.57681849    -0.08600
C832        C  0.11035442  0.99297702  0.59539406     0.30300
F833        F  0.08742902  0.00247527  0.56944892    -0.19100
H834        H  0.08893992  0.00703392  0.65424490     0.18700
H835        H  0.17825250  0.95987663  0.59219385     0.18700
F836        F  0.17929215  0.96416091  0.67789269    -0.19100
C837        C  0.08570408  0.89351914  0.89434149    -0.20500
C838        C  0.09872839  0.90051846  0.85343667    -0.08600
C839        C  0.11067662  0.88109675  0.82564286     0.30300
C840        C  0.10916647  0.85483297  0.83853268    -0.20500
C841        C  0.09610006  0.84761177  0.87962824    -0.08600
C842        C  0.08464310  0.86735684  0.90770690     0.30300
F843        F  0.07217960  0.86152466  0.94784324    -0.19100
H844        H  0.07654235  0.90844989  0.91618304     0.18700
H845        H  0.11813849  0.84013860  0.81612019     0.18700
F846        F  0.12274632  0.88743841  0.78546988    -0.19100
C847        C  0.69763837  0.23388663  0.79571207    -0.20500
C848        C  0.69739164  0.25025467  0.83311190    -0.08600
C849        C  0.72234390  0.26705833  0.84050222     0.30300
C850        C  0.74684950  0.26772198  0.81025303    -0.20500
C851        C  0.74709495  0.25130565  0.77263466    -0.08600
C852        C  0.72228299  0.23408593  0.76608476     0.30300
F853        F  0.72140465  0.21778169  0.73052137    -0.19100
H854        H  0.67847002  0.22094363  0.78927828     0.18700
H855        H  0.76576566  0.28095141  0.81645254     0.18700
F856        F  0.72240257  0.28357486  0.87578711    -0.19100
C857        C  0.57594033  0.39407980  0.88912425    -0.20500
C858        C  0.59545869  0.40245382  0.85477060    -0.08600
C859        C  0.61427461  0.38402913  0.83351050     0.30300
C860        C  0.61337046  0.35770095  0.84636553    -0.20500
C861        C  0.59409336  0.34931391  0.88111003    -0.08600
C862        C  0.57539581  0.36786128  0.90252979     0.30300
F863        F  0.55616977  0.36068575  0.93585369    -0.19100
H864        H  0.56135676  0.40799076  0.90617737     0.18700
H865        H  0.62794446  0.34385724  0.82916326     0.18700
F866        F  0.63297600  0.39132317  0.79965022    -0.19100
C867        C  0.76873791  0.23668014  0.45822238    -0.20500
C868        C  0.73690853  0.23643566  0.46486753    -0.08600
C869        C  0.72514056  0.24002162  0.50792963     0.30300
C870        C  0.74485438  0.24399378  0.54354447    -0.20500
C871        C  0.77660826  0.24486601  0.53696168    -0.08600
C872        C  0.78855903  0.24107949  0.49403406     0.30300
F873        F  0.81927576  0.24087901  0.48697242    -0.19100
H874        H  0.77816848  0.23428113  0.42518607     0.18700
H875        H  0.73524880  0.24647329  0.57647308     0.18700
F876        F  0.69447867  0.23969405  0.51563001    -0.19100
C877        C  0.76730302  0.22751955  0.20023763    -0.20500
C878        C  0.76759332  0.24238574  0.23950444    -0.08600
C879        C  0.79297639  0.25833087  0.24853757     0.30300
C880        C  0.81756214  0.25945900  0.21886441    -0.20500
C881        C  0.81736058  0.24502189  0.17896365    -0.08600
C882        C  0.79179396  0.22894613  0.16994838     0.30300
F883        F  0.79034107  0.21464214  0.13204475    -0.19100
H884        H  0.74767299  0.21538955  0.19240349     0.18700
H885        H  0.83681466  0.27188364  0.22724867     0.18700
F886        F  0.79414503  0.27265165  0.28647246    -0.19100
C887        C  0.65731248  0.25799630  0.09862078    -0.20500
C888        C  0.62859127  0.26427744  0.08080915    -0.08600
C889        C  0.60378353  0.26911651  0.10985660     0.30300
C890        C  0.60773292  0.26726629  0.15578774    -0.20500
C891        C  0.63650381  0.26124512  0.17336955    -0.08600
C892        C  0.66138467  0.25678633  0.14455014     0.30300
F893        F  0.68942204  0.25034968  0.16086839    -0.19100
H894        H  0.67655678  0.25390421  0.07698539     0.18700
H895        H  0.58842231  0.27072899  0.17761911     0.18700
F896        F  0.57537386  0.27458848  0.09393225    -0.19100
C897        C  0.63088339  0.51381889  0.60041609    -0.20500
C898        C  0.63665042  0.48919603  0.58181806    -0.08600
C899        C  0.64347905  0.46791799  0.61004221     0.30300
C900        C  0.64371730  0.47128127  0.65620651    -0.20500
C901        C  0.63754256  0.49593367  0.67472729    -0.08600
C902        C  0.63169420  0.51731111  0.64620009     0.30300
F903        F  0.62655728  0.54170705  0.66255415    -0.19100
H904        H  0.62681232  0.53071111  0.57935927     0.18700
H905        H  0.64765251  0.45445200  0.67743275     0.18700
F906        F  0.64947857  0.44384570  0.59303744    -0.19100
C907        C  0.66225882  0.38083843  0.42036425    -0.20500
C908        C  0.67051100  0.39901460  0.38755391    -0.08600
C909        C  0.67852858  0.39006551  0.34497912     0.30300
C910        C  0.67830360  0.36329508  0.33557714    -0.20500
C911        C  0.66982719  0.34496507  0.36826612    -0.08600
C912        C  0.66162432  0.35407835  0.41088718     0.30300
F913        F  0.65327512  0.33725120  0.44369700    -0.19100
H914        H  0.65598140  0.38740884  0.45334250     0.18700
H915        H  0.68493313  0.35693868  0.30263788     0.18700
F916        F  0.68760244  0.40711497  0.31289048    -0.19100
C917        C  0.87758832  0.85684992  0.60747532    -0.20500
C918        C  0.89690816  0.84645192  0.57451588    -0.08600
C919        C  0.90630257  0.86290064  0.53934765     0.30300
C920        C  0.89695260  0.88916896  0.53792298    -0.20500
C921        C  0.87737822  0.89936905  0.57064557    -0.08600
C922        C  0.86764858  0.88290670  0.60538637     0.30300
F923        F  0.84929623  0.89223472  0.63814994    -0.19100
H924        H  0.86981798  0.84468251  0.63476035     0.18700
H925        H  0.90475960  0.90152122  0.51089097     0.18700
F926        F  0.92487739  0.85379247  0.50666048    -0.19100
C927        C  0.97264845  0.74324853  0.75992797    -0.20500
C928        C  0.98530479  0.74614434  0.71730901    -0.08600
C929        C  0.01715673  0.74505796  0.71162991     0.30300
C930        C  0.03610543  0.74153263  0.74810596    -0.20500
C931        C  0.02372158  0.73879001  0.79086080    -0.08600
C932        C  0.99177919  0.73933373  0.79668355     0.30300
F933        F  0.97922876  0.73713349  0.83778108    -0.19100
H934        H  0.94803473  0.74357372  0.76455985     0.18700
H935        H  0.06068595  0.74132424  0.74298181     0.18700
F936        F  0.03001313  0.74794389  0.67081133    -0.19100
C937        C  0.02162195  0.76747226  0.44725563    -0.20500
C938        C  0.02099346  0.75157891  0.48559592    -0.08600
C939        C  0.04615954  0.73508964  0.49404223     0.30300
C940        C  0.07097212  0.73433546  0.46464433    -0.20500
C941        C  0.07145667  0.74978987  0.42576022    -0.08600
C942        C  0.04643013  0.76655000  0.41751634     0.30300
F943        F  0.04586760  0.78212968  0.38093955    -0.19100
H944        H  0.00250414  0.78025904  0.43968770     0.18700
H945        H  0.08984852  0.72132442  0.47237594     0.18700
F946        F  0.04699562  0.71973565  0.53090877    -0.19100
C947        C  0.89337704  0.38234913  0.70900171    -0.20500
C948        C  0.89951524  0.39490193  0.66830826    -0.08600
C949        C  0.89436718  0.38095200  0.62863957     0.30300
C950        C  0.88245492  0.35551172  0.62986117    -0.20500
C951        C  0.87534855  0.34326146  0.67048502    -0.08600
C952        C  0.88145986  0.35689023  0.71023434     0.30300
F953        F  0.87609013  0.34570768  0.75044568    -0.19100
H954        H  0.89719791  0.39244693  0.74013323     0.18700
H955        H  0.87860220  0.34545365  0.59870367     0.18700
F956        F  0.90069636  0.39182865  0.58848779    -0.19100
C957        C  0.80377908  0.52034540  0.57095471    -0.20500
C958        C  0.81845733  0.49651270  0.58062227    -0.08600
C959        C  0.80763036  0.47345240  0.56062905     0.30300
C960        C  0.78279531  0.47427959  0.53122238    -0.20500
C961        C  0.76852689  0.49819847  0.52027473    -0.08600
C962        C  0.77923483  0.52129021  0.54075424     0.30300
F963        F  0.76592434  0.54476526  0.53197737    -0.19100
H964        H  0.81198639  0.53835632  0.58565687     0.18700
H965        H  0.77499318  0.45613280  0.51654905     0.18700
F966        F  0.82100431  0.45002416  0.56974159    -0.19100
C967        C  0.94729860  0.60722943  0.63000459    -0.20500
C968        C  0.91947493  0.59377951  0.63563599    -0.08600
C969        C  0.89195661  0.60668049  0.62451974     0.30300
C970        C  0.89246737  0.63260854  0.60926239    -0.20500
C971        C  0.92031141  0.64624120  0.60461551    -0.08600
C972        C  0.94783467  0.63305590  0.61471225     0.30300
F973        F  0.97541796  0.64507358  0.61037201    -0.19100
H974        H  0.96889162  0.59779412  0.63771801     0.18700
H975        H  0.87090905  0.64211167  0.60159770     0.18700
F976        F  0.86454054  0.59427316  0.62785805    -0.19100
C977        C  0.89754597  0.39232391  0.04705053    -0.20500
C978        C  0.87678997  0.40253660  0.07820269    -0.08600
C979        C  0.86607342  0.38609297  0.11242889     0.30300
C980        C  0.87587696  0.35995446  0.11507616    -0.20500
C981        C  0.89610014  0.34955955  0.08325516    -0.08600
C982        C  0.90687752  0.36611816  0.04914419     0.30300
F983        F  0.92676184  0.35712670  0.01801614    -0.19100
H984        H  0.90633889  0.40462770  0.02059915     0.18700
H985        H  0.86718129  0.34769160  0.14163773     0.18700
F986        F  0.84677799  0.39544839  0.14400719    -0.19100
C987        C  0.79124321  0.51167177  0.25519455    -0.20500
C988        C  0.78361132  0.49539879  0.21897233    -0.08600
C989        C  0.75495982  0.48292530  0.21880074     0.30300
C990        C  0.73444675  0.48697501  0.25361439    -0.20500
C991        C  0.74189018  0.50340296  0.28968214    -0.08600
C992        C  0.77069890  0.51565789  0.29019520     0.30300
F993        F  0.77920000  0.53133759  0.32442267    -0.19100
H994        H  0.81312370  0.52165240  0.25635567     0.18700
H995        H  0.71258908  0.47696936  0.25223003     0.18700
F996        F  0.74644585  0.46701932  0.18487798    -0.19100
C997        C  0.71698762  0.47360573  0.93137728    -0.20500
C998        C  0.69864272  0.49620761  0.92747751    -0.08600
C999        C  0.70593732  0.51806426  0.95399801     0.30300
C1000       C  0.73087966  0.51739795  0.98316963    -0.20500
C1001       C  0.74909050  0.49484238  0.98766262    -0.08600
C1002       C  0.74178760  0.47277593  0.96151689     0.30300
F1003       F  0.75911290  0.45074402  0.96403650    -0.19100
H1004       H  0.71180715  0.45644384  0.91165473     0.18700
H1005       H  0.73596818  0.53475108  0.00248407     0.18700
F1006       F  0.68927849  0.54047537  0.95111341    -0.19100
C1007       C  0.86529735  0.52868872  0.89216795    -0.20500
C1008       C  0.88510318  0.51487682  0.92103854    -0.08600
C1009       C  0.90851722  0.49951481  0.90261845     0.30300
C1010       C  0.91054302  0.49651237  0.85684695    -0.20500
C1011       C  0.88953399  0.50879761  0.82793973    -0.08600
C1012       C  0.86754650  0.52581333  0.84595395     0.30300
F1013       F  0.84762803  0.53889089  0.81930858    -0.19100
H1014       H  0.84717637  0.54091382  0.90533932     0.18700
H1015       H  0.92863924  0.48408134  0.84413033     0.18700
F1016       F  0.92889790  0.48650815  0.92866243    -0.19100
C1017       C  0.89235185  0.88635626  0.21375932    -0.20500
C1018       C  0.89058680  0.90073895  0.17386139    -0.08600
C1019       C  0.87702049  0.88879873  0.13652569     0.30300
C1020       C  0.86644589  0.86298723  0.13892186    -0.20500
C1021       C  0.86875341  0.84846444  0.17851245    -0.08600
C1022       C  0.88151712  0.86057390  0.21622516     0.30300
F1023       F  0.88459289  0.84729427  0.25509630    -0.19100
H1024       H  0.90239178  0.89498139  0.24321287     0.18700
H1025       H  0.85656594  0.85426851  0.10942551     0.18700
F1026       F  0.87398368  0.90189332  0.09747676    -0.19100
C1027       C  0.97828829  0.76924133  0.02199513    -0.20500
C1028       C  0.99809659  0.74756627  0.02028956    -0.08600
C1029       C  0.99296855  0.72655718  0.04984193     0.30300
C1030       C  0.96836049  0.72728781  0.07998723    -0.20500
C1031       C  0.94808326  0.74872823  0.08078737    -0.08600
C1032       C  0.95348631  0.76979402  0.05145309     0.30300
F1033       F  0.93496438  0.79116772  0.05144326    -0.19100
H1034       H  0.98181845  0.78579997  0.00001817     0.18700
H1035       H  0.96478347  0.71079693  0.10208230     0.18700
F1036       F  0.01211201  0.70559996  0.05036969    -0.19100
C1037       C  0.86159426  0.72240954  0.35591503    -0.20500
C1038       C  0.88721107  0.72859518  0.32952605    -0.08600
C1039       C  0.91572228  0.73255380  0.34936582     0.30300
C1040       C  0.91783248  0.73293181  0.39554030    -0.20500
C1041       C  0.89155545  0.72927792  0.42217431    -0.08600
C1042       C  0.86376052  0.72245366  0.40217188     0.30300
F1043       F  0.83823457  0.71836938  0.42697266    -0.19100
H1044       H  0.83939708  0.71933996  0.34062318     0.18700
H1045       H  0.93972926  0.73763152  0.41054588     0.18700
F1046       F  0.94065178  0.73864763  0.32442906    -0.19100
C1047       C  0.86962029  0.60783867  0.14496226    -0.20500
C1048       C  0.84638120  0.59866704  0.11666388    -0.08600
C1049       C  0.82299976  0.61580674  0.10313565     0.30300
C1050       C  0.82274803  0.64161071  0.11842665    -0.20500
C1051       C  0.84605853  0.65075077  0.14666125    -0.08600
C1052       C  0.86966169  0.63368084  0.15961237     0.30300
F1053       F  0.89239158  0.64175799  0.18718687    -0.19100
H1054       H  0.88783611  0.59491128  0.15588643     0.18700
H1055       H  0.80451980  0.65457352  0.10769740     0.18700
F1056       F  0.79993345  0.60745092  0.07642772    -0.19100
C1057       C  0.65815308  0.63617477  0.85127644    -0.20500
C1058       C  0.64093579  0.65486484  0.82761711    -0.08600
C1059       C  0.61336464  0.64682072  0.80720884     0.30300
C1060       C  0.60378414  0.62069397  0.80982049    -0.20500
C1061       C  0.62091954  0.60215856  0.83368336    -0.08600
C1062       C  0.64816989  0.61016061  0.85466163     0.30300
F1063       F  0.66576380  0.59262671  0.87708950    -0.19100
H1064       H  0.67932226  0.64172254  0.86751323     0.18700
H1065       H  0.58277725  0.61494558  0.79331599     0.18700
F1066       F  0.59576344  0.66403830  0.78411292    -0.19100
C1067       C  0.77189721  0.74650832  0.96002876    -0.20500
C1068       C  0.74097064  0.74001745  0.96613658    -0.08600
C1069       C  0.72932621  0.73696856  0.00924326     0.30300
C1070       C  0.74833109  0.74057152  0.04580477    -0.20500
C1071       C  0.77915213  0.74774138  0.04008432    -0.08600
C1072       C  0.79092132  0.75058586  0.99678436     0.30300
F1073       F  0.82075814  0.75691845  0.98994361    -0.19100
H1074       H  0.78098124  0.74937328  0.92687442     0.18700
H1075       H  0.73877673  0.73800609  0.07875095     0.18700
F1076       F  0.69945339  0.73065132  0.01593151    -0.19100
C1077       C  0.78309486  0.76877429  0.71864528    -0.20500
C1078       C  0.76988549  0.74535442  0.73438389    -0.08600
C1079       C  0.78088863  0.72140426  0.71709326     0.30300
C1080       C  0.80446727  0.72117232  0.68512766    -0.20500
C1081       C  0.81783642  0.74467558  0.67038227    -0.08600
C1082       C  0.80682488  0.76847355  0.68745701     0.30300
F1083       F  0.81911283  0.79158168  0.67389273    -0.19100
H1084       H  0.77520436  0.78758213  0.73072425     0.18700
H1085       H  0.81305673  0.70257308  0.67308942     0.18700
F1086       F  0.76911667  0.69822174  0.73113735    -0.19100
C1087       C  0.62188296  0.11102952  0.88819463    -0.20500
C1088       C  0.64637805  0.10227948  0.91474191    -0.08600
C1089       C  0.65947137  0.11973442  0.94550922     0.30300
C1090       C  0.64837595  0.14528250  0.94944495    -0.20500
C1091       C  0.62360156  0.15400166  0.92353830    -0.08600
C1092       C  0.61033256  0.13657198  0.89279660     0.30300
F1093       F  0.58672493  0.14434509  0.86652555    -0.19100
H1094       H  0.61118072  0.09787766  0.86463454     0.18700
H1095       H  0.65913268  0.15828297  0.97320075     0.18700
F1096       F  0.68327600  0.11220800  0.97163570    -0.19100
C1097       C  0.76829694  0.98872122  0.78789638    -0.20500
C1098       C  0.73812229  0.99745409  0.78068833    -0.08600
C1099       C  0.72716996  0.99967622  0.73684072     0.30300
C1100       C  0.74647470  0.99370197  0.70108435    -0.20500
C1101       C  0.77679635  0.98573613  0.70880557    -0.08600
C1102       C  0.78744675  0.98298779  0.75242621     0.30300
F1103       F  0.81666427  0.97518568  0.76066331    -0.19100
H1104       H  0.77731358  0.98649122  0.82123170     0.18700
H1105       H  0.73821489  0.99638189  0.66743124     0.18700
F1106       F  0.69795450  0.00736664  0.72852408    -0.19100
C1107       C  0.76876428  0.02148635  0.05830660    -0.20500
C1108       C  0.77084924  0.01044529  0.01557093    -0.08600
C1109       C  0.79831838  0.99826317  0.00294729     0.30300
C1110       C  0.82279910  0.99658240  0.03270444    -0.20500
C1111       C  0.82063638  0.00681457  0.07608339    -0.08600
C1112       C  0.79329561  0.01960136  0.08845408     0.30300
F1113       F  0.79001116  0.02998542  0.12965774    -0.19100
H1114       H  0.74772028  0.03083388  0.06891311     0.18700
H1115       H  0.84352825  0.98695590  0.02157701     0.18700
F1116       F  0.80163052  0.98805546  0.96159970    -0.19100
C1117       C  0.69935907  0.89313813  0.87271826    -0.20500
C1118       C  0.67562852  0.90284179  0.89976368    -0.08600
C1119       C  0.65234301  0.88564592  0.91364237     0.30300
C1120       C  0.65300833  0.85933909  0.90091223    -0.20500
C1121       C  0.67646415  0.84974319  0.87338840    -0.08600
C1122       C  0.69968356  0.86692067  0.85926619     0.30300
F1123       F  0.72307195  0.85828178  0.83341060    -0.19100
H1124       H  0.71746925  0.90599236  0.86126332     0.18700
H1125       H  0.63489598  0.84645667  0.91227295     0.18700
F1126       F  0.62910551  0.89411878  0.93991643    -0.19100
C1127       C  0.65638417  0.64328502  0.43260708    -0.20500
C1128       C  0.62498774  0.64965988  0.43499036    -0.08600
C1129       C  0.60358356  0.62910013  0.43684115     0.30300
C1130       C  0.61340757  0.60299299  0.43592875    -0.20500
C1131       C  0.64477492  0.59653077  0.43294718    -0.08600
C1132       C  0.66622910  0.61711125  0.43142592     0.30300
F1133       F  0.69672081  0.61208226  0.42913220    -0.19100
H1134       H  0.67347545  0.65864354  0.43115615     0.18700
H1135       H  0.59618550  0.58774631  0.43742221     0.18700
F1136       F  0.57312472  0.63410401  0.44026648    -0.19100
C1137       C  0.72596987  0.75750866  0.35113110    -0.20500
C1138       C  0.69758633  0.74924501  0.33405216    -0.08600
C1139       C  0.69590226  0.74193262  0.28892097     0.30300
C1140       C  0.72189680  0.74288545  0.26180067    -0.20500
C1141       C  0.75007180  0.75170036  0.27846694    -0.08600
C1142       C  0.75193323  0.75901492  0.32355081     0.30300
F1143       F  0.77900192  0.76689065  0.34126855    -0.19100
H1144       H  0.72793277  0.76324595  0.38564131     0.18700
H1145       H  0.71990198  0.73694044  0.22738155     0.18700
F1146       F  0.66916665  0.73340488  0.27096927    -0.19100
C1147       C  0.60609324  0.76602358  0.61087617    -0.20500
C1148       C  0.63148531  0.76516193  0.58205455    -0.08600
C1149       C  0.66113578  0.76556733  0.59980801     0.30300
C1150       C  0.66517178  0.76683561  0.64582773    -0.20500
C1151       C  0.63973724  0.76688818  0.67466679    -0.08600
C1152       C  0.61011086  0.76646932  0.65682729     0.30300
F1153       F  0.58514197  0.76651204  0.68371672    -0.19100
H1154       H  0.58295808  0.76547729  0.59774776     0.18700
H1155       H  0.68827900  0.76685875  0.65906899     0.18700
F1156       F  0.68602583  0.76487229  0.57280531    -0.19100
C1157       C  0.65367131  0.10281833  0.32269302    -0.20500
C1158       C  0.62262839  0.09548709  0.32061204    -0.08600
C1159       C  0.60025873  0.11529191  0.31773105     0.30300
C1160       C  0.60893883  0.14171628  0.31724694    -0.20500
C1161       C  0.64000930  0.14901911  0.31988555    -0.08600
C1162       C  0.66233346  0.12915535  0.32244252     0.30300
F1163       F  0.69264177  0.13502124  0.32432333    -0.19100
H1164       H  0.67148186  0.08808650  0.32483740     0.18700
H1165       H  0.59119418  0.15650363  0.31514285     0.18700
F1166       F  0.57004747  0.10923124  0.31476045    -0.19100
C1167       C  0.74891932  0.01077145  0.44555110    -0.20500
C1168       C  0.75242201  0.99105782  0.47798113    -0.08600
C1169       C  0.73082852  0.97058797  0.47938929     0.30300
C1170       C  0.70559955  0.97070466  0.45048587    -0.20500
C1171       C  0.70180302  0.99074098  0.41874510    -0.08600
C1172       C  0.72412504  0.01052074  0.41595815     0.30300
F1173       F  0.72118323  0.03038014  0.38620026    -0.19100
H1174       H  0.76536942  0.02660502  0.44324511     0.18700
H1175       H  0.68875644  0.95519892  0.45323235     0.18700
F1176       F  0.73338335  0.95099967  0.50972967    -0.19100
C1177       C  0.65101347  0.01338158  0.10704328    -0.20500
C1178       C  0.63900246  0.99400998  0.07863302    -0.08600
C1179       C  0.62756277  0.97076352  0.09738365     0.30300
C1180       C  0.62747844  0.96748216  0.14356804    -0.20500
C1181       C  0.63901511  0.98715769  0.17182022    -0.08600
C1182       C  0.65127653  0.01001011  0.15287134     0.30300
F1183       F  0.66214666  0.02981450  0.17848782    -0.19100
H1184       H  0.66038504  0.03143962  0.09385215     0.18700
H1185       H  0.61767681  0.94973410  0.15729869     0.18700
F1186       F  0.61672474  0.95116095  0.07135534    -0.19100
C1187       C  0.57992112  0.86358175  0.41721151    -0.20500
C1188       C  0.58673360  0.84467959  0.38488066    -0.08600
C1189       C  0.59256374  0.85286529  0.34086524     0.30300
C1190       C  0.59236334  0.87943384  0.33005286    -0.20500
C1191       C  0.58675470  0.89828435  0.36280910    -0.08600
C1192       C  0.58004404  0.89015577  0.40643113     0.30300
F1193       F  0.57350960  0.90787001  0.43867317    -0.19100
H1194       H  0.57504857  0.85785700  0.45115573     0.18700
H1195       H  0.59753141  0.88530333  0.29625913     0.18700
F1196       F  0.59865561  0.83532719  0.30817460    -0.19100
C1197       C  0.52157328  0.99936427  0.54243602    -0.20500
C1198       C  0.48988296  0.99867363  0.53514295    -0.08600
C1199       C  0.47833469  0.00279878  0.49211804     0.30300
C1200       C  0.49847820  0.00714713  0.45675167    -0.20500
C1201       C  0.53027917  0.00695094  0.46386671    -0.08600
C1202       C  0.54167360  0.00319040  0.50714236     0.30300
F1203       F  0.57227289  0.00309003  0.51533394    -0.19100
H1204       H  0.53079655  0.99664272  0.57556070     0.18700
H1205       H  0.48927471  0.00974660  0.42360337     0.18700
F1206       F  0.44767507  0.00325818  0.48452629    -0.19100
C1207       C  0.56288153  0.01630619  0.79953753    -0.20500
C1208       C  0.56911551  0.99584953  0.82952832    -0.08600
C1209       C  0.54937463  0.97402217  0.83001724     0.30300
C1210       C  0.52440770  0.97267043  0.80040113    -0.20500
C1211       C  0.51840703  0.99312393  0.76999098    -0.08600
C1212       C  0.53793257  0.01515228  0.77045677     0.30300
F1213       F  0.53322853  0.03571426  0.74260888    -0.19100
H1214       H  0.57753740  0.03342491  0.79845689     0.18700
H1215       H  0.50976960  0.95555217  0.80128673     0.18700
F1216       F  0.55479400  0.95359973  0.85787280    -0.19100
C1217       C  0.28774221  0.97477605  0.51760876    -0.20500
C1218       C  0.26942112  0.99729359  0.51319931    -0.08600
C1219       C  0.27634124  0.01924817  0.53981172     0.30300
C1220       C  0.30078984  0.01838911  0.57033026    -0.20500
C1221       C  0.31928671  0.99592936  0.57413575    -0.08600
C1222       C  0.31253535  0.97415730  0.54714936     0.30300
F1223       F  0.32969002  0.95201196  0.54975990    -0.19100
H1224       H  0.28299412  0.95754589  0.49781052     0.18700
H1225       H  0.30573124  0.03552685  0.59024950     0.18700
F1226       F  0.25911374  0.04133190  0.53711687    -0.19100
C1227       C  0.51757572  0.24295225  0.71022639    -0.20500
C1228       C  0.48600364  0.24622483  0.71680097    -0.08600
C1229       C  0.47421418  0.24673583  0.76029196     0.30300
C1230       C  0.49392501  0.24381584  0.79657053    -0.20500
C1231       C  0.52553263  0.24096551  0.78979348    -0.08600
C1232       C  0.53725586  0.24061908  0.74633338     0.30300
F1233       F  0.56776299  0.23784459  0.73877421    -0.19100
H1234       H  0.52708346  0.24237183  0.67698339     0.18700
H1235       H  0.48464774  0.24452102  0.82993298     0.18700
F1236       F  0.44369266  0.24940855  0.76768376    -0.19100
C1237       C  0.54083232  0.23292372  0.49176464    -0.20500
C1238       C  0.51468458  0.24760498  0.48081387    -0.08600
C1239       C  0.51403295  0.26103666  0.43976373     0.30300
C1240       C  0.53915774  0.25983099  0.41067945    -0.20500
C1241       C  0.56558861  0.24578244  0.42243370    -0.08600
C1242       C  0.56614894  0.23227208  0.46327265     0.30300
F1243       F  0.59120133  0.21823044  0.47553445    -0.19100
H1244       H  0.54190090  0.22225123  0.52287283     0.18700
H1245       H  0.53832793  0.27052167  0.37957792     0.18700
F1246       F  0.48896960  0.27501018  0.42738300    -0.19100
C1247       C  0.44228871  0.13569389  0.63321852    -0.20500
C1248       C  0.41573599  0.14649935  0.61407625    -0.08600
C1249       C  0.38912341  0.13091516  0.61155327     0.30300
C1250       C  0.38947268  0.10506544  0.62722466    -0.20500
C1251       C  0.41626576  0.09419687  0.64553627    -0.08600
C1252       C  0.44262419  0.10993603  0.64882375     0.30300
F1253       F  0.46877336  0.10055775  0.66741904    -0.19100
H1254       H  0.46296542  0.14726265  0.63646646     0.18700
H1255       H  0.36892661  0.09332344  0.62395169     0.18700
F1256       F  0.36290101  0.14037646  0.59331161    -0.19100
C1257       C  0.25253921  0.98690072  0.21152972    -0.20500
C1258       C  0.28216684  0.99710530  0.21586475    -0.08600
C1259       C  0.29025125  0.01016148  0.25549396     0.30300
C1260       C  0.26889923  0.01302576  0.28967424    -0.20500
C1261       C  0.23920524  0.00291528  0.28520041    -0.08600
C1262       C  0.23121511  0.98978172  0.24557273     0.30300
F1263       F  0.20271932  0.97977415  0.23927569    -0.19100
H1264       H  0.24555941  0.97708224  0.18129539     0.18700
H1265       H  0.27581261  0.02282254  0.31995571     0.18700
F1266       F  0.31881309  0.02006737  0.26154091    -0.19100
C1267       C  0.48046970  0.02124767  0.23172190    -0.20500
C1268       C  0.50359901  0.00256675  0.22506886    -0.08600
C1269       C  0.50165853  0.98600772  0.18759704     0.30300
C1270       C  0.47658846  0.98764061  0.15854137    -0.20500
C1271       C  0.45279955  0.00551322  0.16648437    -0.08600
C1272       C  0.45527973  0.02264849  0.20305988     0.30300
F1273       F  0.43325023  0.04078849  0.21131606    -0.19100
H1274       H  0.48149065  0.03444989  0.25981908     0.18700
H1275       H  0.47528787  0.97430029  0.13065744     0.18700
F1276       F  0.52399657  0.96824146  0.17884999    -0.19100
C1277       C  0.22680263  0.00624559  0.90974284    -0.20500
C1278       C  0.20071225  0.99177332  0.92141659    -0.08600
C1279       C  0.20033073  0.97855300  0.96254941     0.30300
C1280       C  0.22560357  0.97987623  0.99140996    -0.20500
C1281       C  0.25127698  0.99521042  0.98057386    -0.08600
C1282       C  0.25167774  0.00826806  0.93914274     0.30300
F1283       F  0.27620086  0.02296883  0.92691907    -0.19100
H1284       H  0.22740901  0.01687208  0.87856141     0.18700
H1285       H  0.22467646  0.96961844  0.02291896     0.18700
F1286       F  0.17531992  0.96454030  0.97497652    -0.19100
C1287       C  0.41064059  0.99683695  0.85602701    -0.20500
C1288       C  0.38817108  0.00718296  0.82718950    -0.08600
C1289       C  0.36514802  0.02323768  0.84491162     0.30300
C1290       C  0.36369472  0.02736349  0.89084023    -0.20500
C1291       C  0.38521393  0.01566575  0.91980549    -0.08600
C1292       C  0.40930382  0.00101952  0.90162489     0.30300
F1293       F  0.43112856  0.99000221  0.92784604    -0.19100
H1294       H  0.42943886  0.98515996  0.84339421     0.18700
H1295       H  0.34480327  0.03877760  0.90383767     0.18700
F1296       F  0.34350634  0.03416428  0.81831389    -0.19100
C1297       C  0.46453086  0.22572848  0.07556082    -0.20500
C1298       C  0.44915863  0.24931023  0.08481465    -0.08600
C1299       C  0.45891266  0.27232696  0.06337934     0.30300
C1300       C  0.48310647  0.27170566  0.03292826    -0.20500
C1301       C  0.49805206  0.24807696  0.02234273    -0.08600
C1302       C  0.48858476  0.22499590  0.04437140     0.30300
F1303       F  0.50257901  0.20177051  0.03607781    -0.19100
H1304       H  0.45724580  0.20770671  0.09140802     0.18700
H1305       H  0.48992366  0.28989160  0.01719436     0.18700
F1306       F  0.44508004  0.29558765  0.07209353    -0.19100
C1307       C  0.35278982  0.23566062  0.35911311    -0.20500
C1308       C  0.37936688  0.23361122  0.33274977    -0.08600
C1309       C  0.40729012  0.22690960  0.35250866     0.30300
C1310       C  0.40904526  0.22499944  0.39872680    -0.20500
C1311       C  0.38288215  0.22917557  0.42517821    -0.08600
C1312       C  0.35446775  0.23335589  0.40513764     0.30300
F1313       F  0.32910700  0.23786348  0.43009250    -0.19100
H1314       H  0.33089177  0.24040940  0.34410521     0.18700
H1315       H  0.43121611  0.22197176  0.41414695     0.18700
F1316       F  0.43314462  0.22462506  0.32776033    -0.19100
C1317       C  0.32214095  0.11883472  0.10072572    -0.20500
C1318       C  0.34665143  0.10236937  0.11202760    -0.08600
C1319       C  0.37102116  0.11245174  0.13744255     0.30300
C1320       C  0.37045486  0.13835125  0.15204308    -0.20500
C1321       C  0.34546794  0.15465019  0.14215482    -0.08600
C1322       C  0.32135446  0.14472468  0.11588149     0.30300
F1323       F  0.29716787  0.16003700  0.10440136    -0.19100
H1324       H  0.30314195  0.11142243  0.08129437     0.18700
H1325       H  0.38948179  0.14554955  0.17165199     0.18700
F1326       F  0.39552661  0.09727916  0.14807464    -0.19100
C1327       C  0.14855611  0.13433467  0.87774773    -0.20500
C1328       C  0.14853032  0.14934789  0.83859034    -0.08600
C1329       C  0.13787442  0.13778816  0.79901637     0.30300
C1330       C  0.12716166  0.11201065  0.79892352    -0.20500
C1331       C  0.12699938  0.09692120  0.83802224    -0.08600
C1332       C  0.13821275  0.10833361  0.87754588     0.30300
F1333       F  0.13923374  0.09451480  0.91609794    -0.19100
H1334       H  0.15670160  0.14271625  0.90860747     0.18700
H1335       H  0.11893126  0.10388196  0.76792437     0.18700
F1336       F  0.13681095  0.15161678  0.76046563    -0.19100
C1337       C  0.26530980  0.26833378  0.96659239    -0.20500
C1338       C  0.24028721  0.25092607  0.96691557    -0.08600
C1339       C  0.23454833  0.23593174  0.00521035     0.30300
C1340       C  0.25335103  0.23845466  0.04220710    -0.20500
C1341       C  0.27837904  0.25580405  0.04197822    -0.08600
C1342       C  0.28424025  0.27079315  0.00370108     0.30300
F1343       F  0.30808868  0.28783780  0.00198017    -0.19100
H1344       H  0.27016544  0.28029825  0.93768088     0.18700
H1345       H  0.24840549  0.22639889  0.07098079     0.18700
F1346       F  0.21088221  0.21871216  0.00715880    -0.19100
C1347       C  0.04164217  0.23775474  0.99561772    -0.20500
C1348       C  0.01666264  0.25401358  0.98542927    -0.08600
C1349       C  0.01799002  0.26936023  0.94643123     0.30300
C1350       C  0.04376332  0.26827785  0.91850164    -0.20500
C1351       C  0.06888048  0.25209278  0.92891898    -0.08600
C1352       C  0.06743430  0.23683950  0.96809904     0.30300
F1353       F  0.09079597  0.22070672  0.97993922    -0.19100
H1354       H  0.04130051  0.22566057  0.02523313     0.18700
H1355       H  0.04409241  0.28025470  0.88876433     0.18700
F1356       F  0.99409974  0.28490226  0.93456155    -0.19100
C1357       C  0.26870793  0.22678357  0.69979499    -0.20500
C1358       C  0.26478016  0.24753026  0.73013831    -0.08600
C1359       C  0.28579706  0.26847768  0.72897049     0.30300
C1360       C  0.31064742  0.26799117  0.69967180    -0.20500
C1361       C  0.31502792  0.24694570  0.67026690    -0.08600
C1362       C  0.29340992  0.22652281  0.66996752     0.30300
F1363       F  0.29680863  0.20576462  0.64228285    -0.19100
H1364       H  0.25274617  0.21054596  0.69931627     0.18700
H1365       H  0.32676429  0.28412782  0.70030618     0.18700
F1366       F  0.28278953  0.28933025  0.75655268    -0.19100
C1367       C  0.15979895  0.61825966  0.94835478    -0.20500
C1368       C  0.14592183  0.60072143  0.91863569    -0.08600
C1369       C  0.12117663  0.60957035  0.89249934     0.30300
C1370       C  0.11047511  0.63536036  0.89657349    -0.20500
C1371       C  0.12463104  0.65295379  0.92595941    -0.08600
C1372       C  0.14958759  0.64414986  0.95167632     0.30300
F1373       F  0.16382539  0.66042931  0.98072092    -0.19100
H1374       H  0.17875717  0.61193290  0.96899586     0.18700
H1375       H  0.09142548  0.64171751  0.87614375     0.18700
F1376       F  0.10673441  0.59312878  0.86394715    -0.19100
C1377       C  0.06594487  0.51484821  0.79296785    -0.20500
C1378       C  0.06924115  0.49658774  0.82769088    -0.08600
C1379       C  0.04678609  0.47698921  0.83265156     0.30300
C1380       C  0.02196597  0.47562913  0.80298149    -0.20500
C1381       C  0.01881685  0.49389744  0.76809493    -0.08600
C1382       C  0.04111826  0.51368951  0.76372685     0.30300
F1383       F  0.03930382  0.53187340  0.73085375    -0.19100
H1384       H  0.08275857  0.53021645  0.78828875     0.18700
H1385       H  0.00507755  0.46031545  0.80752187     0.18700
F1386       F  0.04919463  0.45871686  0.86528598    -0.19100
C1387       C  0.14008714  0.38906404  0.88267802    -0.20500
C1388       C  0.16807467  0.40118555  0.89356638    -0.08600
C1389       C  0.19537260  0.38684638  0.88800358     0.30300
C1390       C  0.19459193  0.36126943  0.87172401    -0.20500
C1391       C  0.16670745  0.34911556  0.86054591    -0.08600
C1392       C  0.13931282  0.36335141  0.86632161     0.30300
F1393       F  0.11174046  0.35250020  0.85654004    -0.19100
H1394       H  0.11870157  0.39962410  0.88622097     0.18700
H1395       H  0.21609929  0.35088809  0.86822324     0.18700
F1396       F  0.22300458  0.39738339  0.89844131    -0.19100
C1397       C  0.11096818  0.09933616  0.42551192    -0.20500
C1398       C  0.14212711  0.09263347  0.42974549    -0.08600
C1399       C  0.16370666  0.11290102  0.43456806     0.30300
C1400       C  0.15419601  0.13912086  0.43535561    -0.20500
C1401       C  0.12302349  0.14587610  0.43098876    -0.08600
C1402       C  0.10146352  0.12554533  0.42586793     0.30300
F1403       F  0.07112703  0.13081768  0.42144311    -0.19100
H1404       H  0.09379221  0.08420590  0.42151559     0.18700
H1405       H  0.17142791  0.15419599  0.43934597     0.18700
F1406       F  0.19396018  0.10745119  0.43946862    -0.19100
C1407       C  0.99337529  0.23693770  0.29807277    -0.20500
C1408       C  0.02494089  0.23378922  0.29079248    -0.08600
C1409       C  0.03659585  0.23599399  0.24741545     0.30300
C1410       C  0.01706800  0.24143632  0.21210544    -0.20500
C1411       C  0.98563633  0.24519739  0.21927933    -0.08600
C1412       C  0.97377912  0.24282013  0.26255625     0.30300
F1413       F  0.94330534  0.24552300  0.27030432    -0.19100
H1414       H  0.98409825  0.23579950  0.33140413     0.18700
H1415       H  0.02659750  0.24283511  0.17893625     0.18700
F1416       F  0.06700671  0.23310321  0.23918782    -0.19100
C1417       C  0.95009969  0.26002409  0.55090127    -0.20500
C1418       C  0.94529014  0.23925478  0.58084576    -0.08600
C1419       C  0.96560002  0.21780434  0.57990738     0.30300
C1420       C  0.99002367  0.21730933  0.54929193    -0.20500
C1421       C  0.99488996  0.23838183  0.51981331    -0.08600
C1422       C  0.97456356  0.25974801  0.52107354     0.30300
F1423       F  0.97800354  0.28033404  0.49287511    -0.19100
H1424       H  0.93480944  0.27675005  0.55060924     0.18700
H1425       H  0.00548909  0.20071330  0.54922644     0.18700
F1426       F  0.96142131  0.19710546  0.60761525    -0.19100
C1427       C  0.25059148  0.26329220  0.32224046    -0.20500
C1428       C  0.24915696  0.25433990  0.27798724    -0.08600
C1429       C  0.22174839  0.24292852  0.26295057     0.30300
C1430       C  0.19641862  0.24079878  0.29114984    -0.20500
C1431       C  0.19773142  0.24942520  0.33546526    -0.08600
C1432       C  0.22524125  0.26060355  0.35096648     0.30300
F1433       F  0.22734591  0.26959890  0.39326487    -0.19100
H1434       H  0.27153467  0.27192911  0.33480150     0.18700
H1435       H  0.17556415  0.23220494  0.27818023     0.18700
F1436       F  0.21916281  0.23426074  0.22049983    -0.19100
C1437       C  0.14013649  0.23316676  0.64988424    -0.20500
C1438       C  0.12924358  0.25380150  0.67663734    -0.08600
C1439       C  0.11657980  0.27598995  0.65593530     0.30300
C1440       C  0.11519713  0.27734851  0.60942135    -0.20500
C1441       C  0.12679192  0.25682117  0.58296098    -0.08600
C1442       C  0.13925567  0.23468602  0.60386022     0.30300
F1443       F  0.14958725  0.21392234  0.58002094    -0.19100
H1444       H  0.14989432  0.21565913  0.66457658     0.18700
H1445       H  0.10498311  0.29445583  0.59405689     0.18700
F1446       F  0.10624651  0.29650717  0.68032283    -0.19100
C1447       C  0.15129457  0.60032390  0.29883280    -0.20500
C1448       C  0.12712264  0.59151363  0.32591772    -0.08600
C1449       C  0.11340724  0.60927448  0.35557899     0.30300
C1450       C  0.12383153  0.63522286  0.35796749    -0.20500
C1451       C  0.14768236  0.64409091  0.33030905    -0.08600
C1452       C  0.16131816  0.62631138  0.30062361     0.30300
F1453       F  0.18470979  0.63388059  0.27378423    -0.19100
H1454       H  0.16239207  0.58705689  0.27584222     0.18700
H1455       H  0.11284547  0.64854200  0.38097559     0.18700
F1456       F  0.09047238  0.60145582  0.38300960    -0.19100
C1457       C  0.97888907  0.49403394  0.49026234    -0.20500
C1458       C  0.99058389  0.49463863  0.53372101    -0.08600
C1459       C  0.02218064  0.49855247  0.54031892     0.30300
C1460       C  0.04161754  0.50163242  0.50406379    -0.20500
C1461       C  0.02993046  0.50139744  0.46072301    -0.08600
C1462       C  0.99839093  0.49761337  0.45389132     0.30300
F1463       F  0.98667890  0.49634356  0.41216122    -0.19100
H1464       H  0.95460115  0.49127628  0.48451215     0.18700
H1465       H  0.06595424  0.50412647  0.50983075     0.18700
F1466       F  0.03441689  0.49901822  0.58180526    -0.19100
C1467       C  0.98004484  0.48865558  0.15468845    -0.20500
C1468       C  0.95553845  0.50556199  0.16399550    -0.08600
C1469       C  0.95787384  0.52250780  0.20087062     0.30300
C1470       C  0.98327700  0.52133523  0.22918948    -0.20500
C1471       C  0.00676162  0.50311563  0.22174269    -0.08600
C1472       C  0.00537143  0.48730722  0.18331468     0.30300
F1473       F  0.02837501  0.47036504  0.17352799    -0.19100
H1474       H  0.97900782  0.47564999  0.12633189     0.18700
H1475       H  0.98399644  0.53405480  0.25794092     0.18700
F1476       F  0.93530988  0.53999866  0.21005323    -0.19100
C1477       C  0.14572138  0.50790269  0.15255017    -0.20500
C1478       C  0.13732069  0.48358387  0.17028233    -0.08600
C1479       C  0.12789650  0.46344183  0.14128154     0.30300
C1480       C  0.12713473  0.46777562  0.09536073    -0.20500
C1481       C  0.13538192  0.49226731  0.07784570    -0.08600
C1482       C  0.14435951  0.51240688  0.10713153     0.30300
F1483       F  0.15174512  0.53669597  0.09203815    -0.19100
H1484       H  0.15198878  0.52403715  0.17405781     0.18700
H1485       H  0.12076927  0.45183592  0.07352020     0.18700
F1486       F  0.11930331  0.43966001  0.15724197    -0.19100
C1487       C  0.08651247  0.34881314  0.33944275    -0.20500
C1488       C  0.08575558  0.34122808  0.38438361    -0.08600
C1489       C  0.08464602  0.36062711  0.41741279     0.30300
C1490       C  0.08537516  0.38701389  0.40558492    -0.20500
C1491       C  0.08686128  0.39462176  0.36073904    -0.08600
C1492       C  0.08685972  0.37526307  0.32758502     0.30300
F1493       F  0.08835715  0.38177461  0.28388103    -0.19100
H1494       H  0.08709044  0.33422834  0.31335383     0.18700
H1495       H  0.08508212  0.40156259  0.43174450     0.18700
F1496       F  0.08396211  0.35421154  0.46119835    -0.19100
C1497       C  0.40705130  0.86808376  0.04570110    -0.20500
C1498       C  0.39530132  0.85116579  0.07839556    -0.08600
C1499       C  0.37312620  0.86096548  0.10816168     0.30300
C1500       C  0.36307306  0.88704378  0.10504361    -0.20500
C1501       C  0.37533824  0.90408155  0.07291835    -0.08600
C1502       C  0.39753099  0.89427224  0.04323589     0.30300
F1503       F  0.40977386  0.90989747  0.01129728    -0.19100
H1504       H  0.42395174  0.86108563  0.02218863     0.18700
H1505       H  0.34612118  0.89408195  0.12844140     0.18700
F1506       F  0.36060171  0.84521659  0.13968557    -0.19100
C1507       C  0.49382741  0.73941783  0.29748184    -0.20500
C1508       C  0.52571952  0.73862831  0.29122777    -0.08600
C1509       C  0.53778050  0.74310526  0.24853560     0.30300
C1510       C  0.51840194  0.74835036  0.21298191    -0.20500
C1511       C  0.48663827  0.74963346  0.21912241    -0.08600
C1512       C  0.47431728  0.74506344  0.26165371     0.30300
F1513       F  0.44354472  0.74523456  0.26822047    -0.19100
H1514       H  0.48413522  0.73645386  0.33023918     0.18700
H1515       H  0.52828937  0.75139803  0.18034863     0.18700
F1516       F  0.56846397  0.74246278  0.24111354    -0.19100
C1517       C  0.57065065  0.74151549  0.96520149    -0.20500
C1518       C  0.56907517  0.75250600  0.92236914    -0.08600
C1519       C  0.54128804  0.76378876  0.90832430     0.30300
C1520       C  0.51606003  0.76478693  0.93736074    -0.20500
C1521       C  0.51782328  0.75393320  0.98038811    -0.08600
C1522       C  0.54531821  0.74184857  0.99364824     0.30300
F1523       F  0.54805804  0.73091929  0.03461536    -0.19100
H1524       H  0.59171032  0.73256797  0.97678672     0.18700
H1525       H  0.49499157  0.77381878  0.92602821     0.18700
F1526       F  0.53882722  0.77463627  0.86727244    -0.19100
C1527       C  0.31451122  0.76585905  0.20542566    -0.20500
C1528       C  0.31839437  0.74749259  0.17119412    -0.08600
C1529       C  0.29658830  0.72735115  0.16643704     0.30300
C1530       C  0.27182150  0.72554102  0.19596191    -0.20500
C1531       C  0.26813572  0.74386050  0.23045809    -0.08600
C1532       C  0.28974840  0.76421696  0.23457892     0.30300
F1533       F  0.28734411  0.78247813  0.26712933    -0.19100
H1534       H  0.33086291  0.78160039  0.20989897     0.18700
H1535       H  0.25543064  0.70982056  0.19165556     0.18700
F1536       F  0.29960331  0.70896620  0.13420299    -0.19100
C1537       C  0.39479689  0.38893625  0.13790403    -0.20500
C1538       C  0.39458580  0.40378338  0.17708283    -0.08600
C1539       C  0.38289390  0.39239406  0.21623997     0.30300
C1540       C  0.37192762  0.36662714  0.21598225    -0.20500
C1541       C  0.37237655  0.35165276  0.17682212    -0.08600
C1542       C  0.38398378  0.36320503  0.13761279     0.30300
F1543       F  0.38529248  0.34969272  0.09884683    -0.19100
H1544       H  0.40357701  0.39720992  0.10727355     0.18700
H1545       H  0.36313037  0.35838968  0.24661444     0.18700
F1546       F  0.38131266  0.40629833  0.25457631    -0.19100
C1547       C  0.51545003  0.51848978  0.04040305    -0.20500
C1548       C  0.49064895  0.50087346  0.04094499    -0.08600
C1549       C  0.48504843  0.48525012  0.00343604     0.30300
C1550       C  0.50387273  0.48734907  0.96633505    -0.20500
C1551       C  0.52869628  0.50492429  0.96578596    -0.08600
C1552       C  0.53432227  0.52055880  0.00326669     0.30300
F1553       F  0.55789989  0.53789350  0.00420020    -0.19100
H1554       H  0.52019570  0.53095047  0.06866840     0.18700
H1555       H  0.49911060  0.47484806  0.93812498     0.18700
F1556       F  0.46148932  0.46789743  0.00235973    -0.19100
C1557       C  0.26927275  0.51937603  0.05705519    -0.20500
C1558       C  0.26965702  0.50459403  0.01759766    -0.08600
C1559       C  0.29578479  0.48948162  0.00807355     0.30300
C1560       C  0.32082233  0.48931968  0.03721149    -0.20500
C1561       C  0.32049330  0.50395453  0.07691748    -0.08600
C1562       C  0.29421005  0.51896306  0.08657600     0.30300
F1563       F  0.29251554  0.53335957  0.12435504    -0.19100
H1564       H  0.24933723  0.53098422  0.06551092     0.18700
H1565       H  0.34059858  0.47759262  0.02848314     0.18700
F1566       F  0.29746311  0.47519563  0.97014656    -0.19100
C1567       C  0.54438182  0.51257657  0.26254757    -0.20500
C1568       C  0.51778127  0.49879464  0.27446394    -0.08600
C1569       C  0.51683932  0.48599457  0.31602365     0.30300
C1570       C  0.54220256  0.48682128  0.34465774    -0.20500
C1571       C  0.56909643  0.49987050  0.33191994    -0.08600
C1572       C  0.56990730  0.51287098  0.29064109     0.30300
F1573       F  0.59536082  0.52611911  0.27763897    -0.19100
H1574       H  0.54560298  0.52281995  0.23103862     0.18700
H1575       H  0.54114911  0.47664175  0.37623337     0.18700
F1576       F  0.49123847  0.47309579  0.32935141    -0.19100
C1577       C  0.39387487  0.64265440  0.13387712    -0.20500
C1578       C  0.42032115  0.65299492  0.11373538    -0.08600
C1579       C  0.44664320  0.63723937  0.11058350     0.30300
C1580       C  0.44630833  0.61166151  0.12691582    -0.20500
C1581       C  0.41982131  0.60117999  0.14677170    -0.08600
C1582       C  0.39356968  0.61705021  0.15042055     0.30300
F1583       F  0.36769070  0.60800726  0.17020986    -0.19100
H1584       H  0.37347099  0.65455442  0.13746176     0.18700
H1585       H  0.46678285  0.59987411  0.12315975     0.18700
F1586       F  0.47256075  0.64628594  0.09090002    -0.19100
C1587       C  0.39486410  0.88156081  0.70784485    -0.20500
C1588       C  0.39774147  0.89487784  0.66703998    -0.08600
C1589       C  0.38917417  0.88169954  0.62782379     0.30300
C1590       C  0.37809720  0.85598976  0.62967504    -0.20500
C1591       C  0.37495143  0.84281357  0.67049542    -0.08600
C1592       C  0.38355150  0.85592266  0.70970320     0.30300
F1593       F  0.38160981  0.84389639  0.74987808    -0.19100
H1594       H  0.40111239  0.89108035  0.73867215     0.18700
H1595       H  0.37174238  0.84642829  0.59892514     0.18700
F1596       F  0.39126210  0.89357541  0.58755142    -0.19100
C1597       C  0.26608321  0.75898777  0.46299985    -0.20500
C1598       C  0.24127408  0.74136748  0.46228062    -0.08600
C1599       C  0.23619116  0.72507491  0.49921087     0.30300
C1600       C  0.25519281  0.72683098  0.53622392    -0.20500
C1601       C  0.27969143  0.74472910  0.53725927    -0.08600
C1602       C  0.28514748  0.76070237  0.50001260     0.30300
F1603       F  0.30859061  0.77818039  0.49931579    -0.19100
H1604       H  0.27057766  0.77184257  0.43507741     0.18700
H1605       H  0.25066410  0.71398486  0.56414466     0.18700
F1606       F  0.21286210  0.70749553  0.49987827    -0.19100
C1607       C  0.44871966  0.72263542  0.54779224    -0.20500
C1608       C  0.44880958  0.73819149  0.58624157    -0.08600
C1609       C  0.47436278  0.75397823  0.59525180     0.30300
C1610       C  0.49891008  0.75487691  0.56523716    -0.20500
C1611       C  0.49870285  0.73960421  0.52627750    -0.08600
C1612       C  0.47362556  0.72295876  0.51837258     0.30300
F1613       F  0.47248178  0.70801385  0.48116754    -0.19100
H1614       H  0.42900867  0.71054015  0.54016803     0.18700
H1615       H  0.51809731  0.76768212  0.57232354     0.18700
F1616       F  0.47489621  0.76945660  0.63187716    -0.19100
C1617       C  0.21999448  0.73885343  0.75564158    -0.20500
C1618       C  0.24735213  0.75069359  0.76957075    -0.08600
C1619       C  0.24874582  0.76172128  0.81242028     0.30300
C1620       C  0.22317719  0.76082210  0.84063369    -0.20500
C1621       C  0.19560542  0.74947747  0.82627731    -0.08600
C1622       C  0.19426078  0.73851631  0.78333765     0.30300
F1623       F  0.16819623  0.72700679  0.76833595    -0.19100
H1624       H  0.21845498  0.73002206  0.72301098     0.18700
H1625       H  0.22475602  0.76943357  0.87341815     0.18700
F1626       F  0.27509279  0.77266260  0.82754507    -0.19100
C1627       C  0.35244396  0.73076927  0.86068219    -0.20500
C1628       C  0.37863318  0.73095886  0.83333593    -0.08600
C1629       C  0.40779088  0.73006959  0.85246801     0.30300
C1630       C  0.41067519  0.73149607  0.89850404    -0.20500
C1631       C  0.38453716  0.73323700  0.92568248    -0.08600
C1632       C  0.35533742  0.73160118  0.90682274     0.30300
F1633       F  0.32985544  0.73316172  0.93254493    -0.19100
H1634       H  0.32973637  0.73133401  0.84611007     0.18700
H1635       H  0.43339573  0.73257720  0.91295102     0.18700
F1636       F  0.43332015  0.73034403  0.82672527    -0.19100
C1637       C  0.38032582  0.38483265  0.61992546    -0.20500
C1638       C  0.37393165  0.39765306  0.57959367    -0.08600
C1639       C  0.37861794  0.38390498  0.53954635     0.30300
C1640       C  0.38928545  0.35803592  0.54018527    -0.20500
C1641       C  0.39540178  0.34515414  0.58056674    -0.08600
C1642       C  0.39084835  0.35896278  0.62057485     0.30300
F1643       F  0.39653202  0.34759494  0.66054987    -0.19100
H1644       H  0.37715170  0.39482839  0.65130257     0.18700
H1645       H  0.39235829  0.34796264  0.50885956     0.18700
F1646       F  0.37306980  0.39536234  0.49960639    -0.19100
C1647       C  0.25582658  0.51695649  0.71329182    -0.20500
C1648       C  0.27689763  0.49617375  0.71014490    -0.08600
C1649       C  0.27886042  0.47785966  0.74482882     0.30300
C1650       C  0.26000336  0.48034571  0.78183132    -0.20500
C1651       C  0.23889092  0.50110149  0.78504234    -0.08600
C1652       C  0.23700447  0.51950042  0.75041462     0.30300
F1653       F  0.21742774  0.54013295  0.75259686    -0.19100
H1654       H  0.25426224  0.53160405  0.68728989     0.18700
H1655       H  0.26171885  0.46569365  0.80780075     0.18700
F1656       F  0.29859508  0.45733224  0.74280558    -0.19100
C1657       C  0.46797949  0.52267270  0.67103769    -0.20500
C1658       C  0.44945957  0.50016337  0.67019482    -0.08600
C1659       C  0.45690771  0.47915242  0.69855633     0.30300
C1660       C  0.48188166  0.48087414  0.72762143    -0.20500
C1661       C  0.50009464  0.50360764  0.72950025    -0.08600
C1662       C  0.49290718  0.52452493  0.70046817     0.30300
F1663       F  0.50962914  0.54693586  0.70073523    -0.19100
H1664       H  0.46259547  0.53919910  0.64978966     0.18700
H1665       H  0.48691612  0.46424084  0.74879131     0.18700
F1666       F  0.44022201  0.45670909  0.69782888    -0.19100
C1667       C  0.23130193  0.46933518  0.47893073    -0.20500
C1668       C  0.25214087  0.49021199  0.47724147    -0.08600
C1669       C  0.24836868  0.50970301  0.44452785     0.30300
C1670       C  0.22379813  0.50846454  0.41457303    -0.20500
C1671       C  0.20215877  0.48817514  0.41750569    -0.08600
C1672       C  0.20625864  0.46848990  0.44988086     0.30300
F1673       F  0.18599607  0.44842274  0.45350434    -0.19100
H1674       H  0.23397374  0.45402059  0.50360156     0.18700
H1675       H  0.22105116  0.52389740  0.39013611     0.18700
F1676       F  0.26866143  0.52976379  0.44120010    -0.19100
C1677       C  0.35163541  0.51170763  0.39480855    -0.20500
C1678       C  0.37776728  0.51370207  0.42213391    -0.08600
C1679       C  0.40622637  0.51946209  0.40314707     0.30300
C1680       C  0.40883328  0.52094918  0.35703527    -0.20500
C1681       C  0.38305428  0.51715922  0.32966168    -0.08600
C1682       C  0.35420005  0.51354035  0.34873550     0.30300
F1683       F  0.32919493  0.50929055  0.32290526    -0.19100
H1684       H  0.32938498  0.50751144  0.40913747     0.18700
H1685       H  0.43134913  0.52349705  0.34245529     0.18700
F1686       F  0.43177868  0.52128039  0.42868264    -0.19100
C1687       C  0.37459795  0.60799604  0.61841448    -0.20500
C1688       C  0.34676387  0.59467674  0.61198977    -0.08600
C1689       C  0.31922616  0.60721525  0.62413099     0.30300
C1690       C  0.31971867  0.63250947  0.64158999    -0.20500
C1691       C  0.34751284  0.64594390  0.64754429    -0.08600
C1692       C  0.37507863  0.63330111  0.63602214     0.30300
F1693       F  0.40252614  0.64548715  0.64071581    -0.19100
H1694       H  0.39617622  0.59881443  0.60987138     0.18700
H1695       H  0.29811994  0.64168252  0.65007433     0.18700
F1696       F  0.29169150  0.59517245  0.61931788    -0.19100
loop_ 
_geom_bond_atom_site_label_1 
_geom_bond_atom_site_label_2 
_geom_bond_distance 
_geom_bond_site_symmetry_2 
_ccdc_geom_bond_type 
Zn1           O5   1.915       .  S
Zn1           O6   1.958       .  S
Zn1          O10   2.027       .  S
Zn1          O17   2.012       .  S
Zn2           O5   1.945       .  S
Zn2           O7   2.018       .  S
Zn2           O9   2.041       .  S
Zn2          O13   2.053       .  S
Zn3           O5   1.925       .  S
Zn3           O8   2.033       .  S
Zn3          O11   1.993       .  S
Zn3          O14   1.977       .  S
Zn4           O5   1.915       .  S
Zn4          O12   2.013       .  S
Zn4          O15   2.022       .  S
Zn4          O16   2.029       .  S
O6           C18   1.270       .  A
O7           C19   1.273       .  A
O8           C20   1.274       .  A
O9           C18   1.280       .  A
O10          C20   1.274       .  A
O11          C19   1.270       .  A
O12          C21   1.277       .  A
O13          C22   1.280       .  A
O14          C21   1.273       .  A
O15          C22   1.276       .  A
O16          C23   1.276       .  A
O17          C23   1.274       .  A
C18        C1678   1.465       .  S
C19        C1688   1.482       .  S
C20        C1668   1.479       .  S
C21        C1648   1.469       .  S
C22        C1658   1.488       .  S
C23        C1638   1.488       .  S
Zn24         O28   1.926       .  S
Zn24         O29   2.009       .  S
Zn24         O33   2.016       .  S
Zn24         O40   2.024       .  S
Zn25         O28   1.928       .  S
Zn25         O30   1.997       .  S
Zn25         O32   1.976       .  S
Zn25         O36   2.023       .  S
Zn26         O28   1.951       .  S
Zn26         O31   2.052       .  S
Zn26         O34   2.016       .  S
Zn26         O37   2.034       .  S
Zn27         O28   1.924       .  S
Zn27         O35   1.959       .  S
Zn27         O38   2.026       .  S
Zn27         O39   2.026       .  S
O29          C41   1.274       .  A
O30          C42   1.272       .  A
O31          C43   1.278       .  A
O32          C41   1.271       .  A
O33          C43   1.273       .  A
O34          C42   1.274       .  A
O35          C44   1.269       .  A
O36          C45   1.275       .  A
O37          C44   1.277       .  A
O38          C45   1.275       .  A
O39          C46   1.277       .  A
O40          C46   1.276       .  A
C41        C1601   1.474       .  S
C42        C1691   1.481       .  S
C43        C1608   1.476       .  S
C44        C1628   1.461       .  S
C45        C1618   1.482       .  S
C46        C1591   1.487       .  S
Zn47         O51   1.923       .  S
Zn47         O52   1.944       .  S
Zn47         O56   2.023       .  S
Zn47         O63   2.011       .  S
Zn48         O51   1.960       .  S
Zn48         O53   2.022       .  S
Zn48         O55   2.044       .  S
Zn48         O59   2.062       .  S
Zn49         O51   1.930       .  S
Zn49         O54   2.023       .  S
Zn49         O57   1.989       .  S
Zn49         O60   1.974       .  S
Zn50         O51   1.926       .  S
Zn50         O58   2.005       .  S
Zn50         O61   2.014       .  S
Zn50         O62   2.017       .  S
O52          C64   1.267       .  A
O53          C65   1.274       .  A
O54          C66   1.274       .  A
O55          C64   1.278       .  A
O56          C66   1.274       .  A
O57          C65   1.271       .  A
O58          C67   1.275       .  A
O59          C68   1.280       .  A
O60          C67   1.271       .  A
O61          C68   1.274       .  A
O62          C69   1.275       .  A
O63          C69   1.274       .  A
C64        C1681   1.459       .  S
C65        C1581   1.479       .  S
C66        C1568   1.484       .  S
C67        C1548   1.472       .  S
C68        C1561   1.496       .  S
C69        C1538   1.481       .  S
Zn70         O74   1.934       .  S
Zn70         O75   1.977       .  S
Zn70         O79   2.027       .  S
Zn70         O86   2.006       .  S
Zn71         O74   1.939       .  S
Zn71         O76   2.044       .  S
Zn71         O78   2.038       .  S
Zn71         O82   2.006       .  S
Zn72         O74   1.935       .  S
Zn72         O77   2.036       .  S
Zn72         O80   2.035       .  S
Zn72         O83   1.968   1_554  S
Zn73         O74   1.959       .  S
Zn73         O81   2.023       .  S
Zn73         O84   2.028       .  S
Zn73         O85   2.005       .  S
O75          C87   1.272       .  A
O76          C88   1.278       .  A
O77          C89   1.275       .  A
O78          C87   1.277       .  A
O79          C89   1.275       .  A
O80          C88   1.278       .  A
O81          C90   1.275   1_554  A
O82          C91   1.274       .  A
O83          C90   1.270       .  A
O84          C91   1.276       .  A
O85          C92   1.271       .  A
O86          C92   1.272       .  A
C87        C1511   1.469       .  S
C88        C1498   1.490       .  S
C89        C1521   1.488   1_554  S
C90        C1631   1.459       .  S
C91        C1528   1.483       .  S
C92        C1578   1.477       .  S
Zn93         O97   1.949       .  S
Zn93         O98   2.010       .  S
Zn93        O102   1.971       .  S
Zn93        O109   2.008       .  S
Zn94         O97   1.922       .  S
Zn94         O99   1.998       .  S
Zn94        O101   1.986       .  S
Zn94        O105   1.976       .  S
Zn95         O97   1.937       .  S
Zn95        O100   2.014       .  S
Zn95        O103   2.053       .  S
Zn95        O106   2.004       .  S
Zn96         O97   1.953       .  S
Zn96        O104   2.050       .  S
Zn96        O107   2.027       .  S
Zn96        O108   2.047       .  S
O98         C110   1.272       .  A
O99         C111   1.272       .  A
O100        C112   1.277       .  A
O101        C110   1.270       .  A
O102        C112   1.268       .  A
O103        C111   1.278       .  A
O104        C113   1.278       .  A
O105        C114   1.270       .  A
O106        C113   1.273       .  A
O107        C114   1.276       .  A
O108        C115   1.278       .  A
O109        C115   1.273       .  A
C110       C1491   1.473       .  S
C111       C1671   1.482       .  S
C112       C1478   1.471       .  S
C113       C1448   1.484       .  S
C114       C1461   1.465       .  S
C115       C1471   1.486       .  S
Zn116       O120   1.914       .  S
Zn116       O121   1.957       .  S
Zn116       O125   1.998       .  S
Zn116       O132   1.992       .  S
Zn117       O120   1.952       .  S
Zn117       O122   2.041       .  S
Zn117       O124   2.046       .  S
Zn117       O128   2.059       .  S
Zn118       O120   1.939       .  S
Zn118       O123   2.086       .  S
Zn118       O126   2.029       .  S
Zn118       O129   2.032       .  S
Zn119       O120   1.935       .  S
Zn119       O127   1.980       .  S
Zn119       O130   2.011       .  S
Zn119       O131   2.003       .  S
O121        C133   1.269       .  A
O122        C134   1.279       .  A
O123        C135   1.281       .  A
O124        C133   1.278       .  A
O125        C135   1.272       .  A
O126        C134   1.278       .  A
O127        C136   1.270       .  A
O128        C137   1.277       .  A
O129        C136   1.280       .  A
O130        C137   1.274       .  A
O131        C138   1.272       .  A
O132        C138   1.271       .  A
C133       C1408   1.468       .  S
C134       C1401   1.492       .  S
C135       C1431   1.491       .  S
C136       C1441   1.476       .  S
C137       C1421   1.487   1_455  S
C138       C1488   1.474       .  S
Zn139       O143   1.934       .  S
Zn139       O144   2.037       .  S
Zn139       O148   1.969       .  S
Zn139       O155   2.009       .  S
Zn140       O143   1.928       .  S
Zn140       O145   2.013       .  S
Zn140       O147   2.028       .  S
Zn140       O151   1.939   1_556  S
Zn141       O143   1.933       .  S
Zn141       O146   2.016       .  S
Zn141       O149   2.033       .  S
Zn141       O152   2.005       .  S
Zn142       O143   1.965       .  S
Zn142       O150   2.056       .  S
Zn142       O153   2.049   1_556  S
Zn142       O154   2.030       .  S
O144        C156   1.276       .  A
O145        C157   1.273       .  A
O146        C158   1.276       .  A
O147        C156   1.274       .  A
O148        C158   1.271       .  A
O149        C157   1.275       .  A
O150        C159   1.280       .  A
O151        C160   1.267       .  A
O152        C159   1.274       .  A
O153        C160   1.280       .  A
O154        C161   1.274       .  A
O155        C161   1.273       .  A
C156       C1558   1.490   1_556  S
C157       C1368   1.483       .  S
C158       C1651   1.471       .  S
C159       C1378   1.489       .  S
C160       C1481   1.473       .  S
C161       C1388   1.488       .  S
Zn162       O166   1.932       .  S
Zn162       O167   2.010       .  S
Zn162       O171   2.006       .  S
Zn162       O178   2.040       .  S
Zn163       O166   1.969       .  S
Zn163       O168   2.043       .  S
Zn163       O170   2.064       .  S
Zn163       O174   2.070       .  S
Zn164       O166   1.932       .  S
Zn164       O169   1.984       .  S
Zn164       O172   1.997       .  S
Zn164       O175   2.029       .  S
Zn165       O166   1.920       .  S
Zn165       O173   2.021       .  S
Zn165       O176   1.933       .  S
Zn165       O177   1.998       .  S
O167        C179   1.275       .  A
O168        C180   1.276       .  A
O169        C181   1.272       .  A
O170        C179   1.281       .  A
O171        C181   1.275       .  A
O172        C180   1.272       .  A
O173        C182   1.274       .  A
O174        C183   1.281       .  A
O175        C182   1.275       .  A
O176        C183   1.267       .  A
O177        C184   1.271       .  A
O178        C184   1.275       .  A
C179       C1351   1.494       .  S
C180       C1391   1.489       .  S
C181       C1338   1.474       .  S
C182       C1358   1.491       .  S
C183       C1438   1.480       .  S
C184       C1328   1.484       .  S
Zn185       O189   1.929       .  S
Zn185       O190   2.025       .  S
Zn185       O194   2.000       .  S
Zn185       O201   1.966       .  S
Zn186       O189   1.940       .  S
Zn186       O191   1.953       .  S
Zn186       O193   2.051       .  S
Zn186       O197   2.034       .  S
Zn187       O189   1.961       .  S
Zn187       O192   2.010       .  S
Zn187       O195   2.038       .  S
Zn187       O198   2.061       .  S
Zn188       O189   1.929       .  S
Zn188       O196   2.016       .  S
Zn188       O199   2.004       .  S
Zn188       O200   2.014       .  S
O190        C202   1.274       .  A
O191        C203   1.270       .  A
O192        C204   1.273       .  A
O193        C202   1.277       .  A
O194        C204   1.271       .  A
O195        C203   1.278       .  A
O196        C205   1.274       .  A
O197        C206   1.278       .  A
O198        C205   1.279       .  A
O199        C206   1.273       .  A
O200        C207   1.275       .  A
O201        C207   1.270       .  A
C202       C1428   1.490       .  S
C203       C1308   1.463       .  S
C204       C1321   1.478       .  S
C205       C1298   1.486       .  S
C206       C1541   1.486       .  S
C207       C1341   1.473       .  S
Zn208       O212   1.957   1_565  S
Zn208       O213   2.060       .  S
Zn208       O217   2.067       .  S
Zn208       O224   2.033       .  S
Zn209       O212   1.948   1_565  S
Zn209       O214   2.027   1_554  S
Zn209       O216   2.019       .  S
Zn209       O220   2.068       .  S
Zn210       O212   1.956       .  S
Zn210       O215   2.020       .  S
Zn210       O218   1.980   1_554  S
Zn210       O221   2.040       .  S
Zn211       O212   1.921       .  S
Zn211       O219   1.977       .  S
Zn211       O222   1.980       .  S
Zn211       O223   1.969       .  S
O213        C225   1.280       .  A
O214        C226   1.279   1_565  A
O215        C227   1.275   1_545  A
O216        C225   1.275       .  A
O217        C227   1.280       .  A
O218        C226   1.270       .  A
O219        C228   1.268       .  A
O220        C229   1.279   1_565  A
O221        C228   1.275       .  A
O222        C229   1.269       .  A
O223        C230   1.269   1_545  A
O224        C230   1.278       .  A
C225       C1501   1.489       .  S
C226       C1291   1.479       .  S
C227       C1281   1.492   1_554  S
C228       C1318   1.474       .  S
C229       C1271   1.485       .  S
C230       C1258   1.476       .  S
Zn231       O235   1.928       .  S
Zn231       O236   2.002       .  S
Zn231       O240   2.017       .  S
Zn231       O247   2.013       .  S
Zn232       O235   1.961       .  S
Zn232       O237   2.037       .  S
Zn232       O239   2.050       .  S
Zn232       O243   2.021       .  S
Zn233       O235   1.928       .  S
Zn233       O238   2.027       .  S
Zn233       O241   1.953       .  S
Zn233       O244   2.023       .  S
Zn234       O235   1.929       .  S
Zn234       O242   2.032       .  S
Zn234       O245   2.009       .  S
Zn234       O246   1.982       .  S
O236        C248   1.273       .  A
O237        C249   1.277       .  A
O238        C250   1.276       .  A
O239        C248   1.279       .  A
O240        C250   1.274       .  A
O241        C249   1.268       .  A
O242        C251   1.276       .  A
O243        C252   1.273       .  A
O244        C251   1.274       .  A
O245        C252   1.274       .  A
O246        C253   1.272       .  A
O247        C253   1.275       .  A
C248       C1361   1.485       .  S
C249       C1311   1.457       .  S
C250       C1641   1.488       .  S
C251       C1238   1.487       .  S
C252       C1248   1.485       .  S
C253       C1228   1.467       .  S
Zn254       O258   1.934       .  S
Zn254       O259   2.015       .  S
Zn254       O263   2.038       .  S
Zn254       O270   2.026       .  S
Zn255       O258   1.966   1_545  S
Zn255       O260   2.061       .  S
Zn255       O262   2.072       .  S
Zn255       O266   2.023       .  S
Zn256       O258   1.935       .  S
Zn256       O261   2.014       .  S
Zn256       O264   1.948       .  S
Zn256       O267   2.048       .  S
Zn257       O258   1.928   1_545  S
Zn257       O265   2.026       .  S
Zn257       O268   2.002       .  S
Zn257       O269   1.980       .  S
O259        C271   1.274       .  A
O260        C272   1.281       .  A
O261        C273   1.275       .  A
O262        C271   1.282   1_545  A
O263        C273   1.277       .  A
O264        C272   1.269   1_565  A
O265        C274   1.274   1_545  A
O266        C275   1.273       .  A
O267        C274   1.276       .  A
O268        C275   1.272       .  A
O269        C276   1.272   1_545  A
O270        C276   1.277       .  A
C271       C1221   1.490       .  S
C272       C1288   1.480       .  S
C273       C1588   1.490       .  S
C274       C1211   1.498       .  S
C275       C1251   1.481       .  S
C276       C1198   1.465       .  S
Zn277       O281   1.950       .  S
Zn277       O282   2.010       .  S
Zn277       O286   2.007       .  S
Zn277       O293   1.974       .  S
Zn278       O281   1.960   1_545  S
Zn278       O283   2.031       .  S
Zn278       O285   2.042       .  S
Zn278       O289   2.041       .  S
Zn279       O281   1.930       .  S
Zn279       O284   1.984       .  S
Zn279       O287   1.972       .  S
Zn279       O290   2.008       .  S
Zn280       O281   1.941   1_545  S
Zn280       O288   2.054       .  S
Zn280       O291   2.002       .  S
Zn280       O292   2.020       .  S
O282        C294   1.272   1_565  A
O283        C295   1.276       .  A
O284        C296   1.269       .  A
O285        C294   1.277       .  A
O286        C296   1.272       .  A
O287        C295   1.270   1_565  A
O288        C297   1.278   1_545  A
O289        C298   1.277       .  A
O290        C297   1.272       .  A
O291        C298   1.273       .  A
O292        C299   1.277   1_545  A
O293        C299   1.269       .  A
C294       C1268   1.488       .  S
C295       C1201   1.469       .  S
C296       C1191   1.469       .  S
C297       C1171   1.486       .  S
C298       C1158   1.486       .  S
C299       C1181   1.476       .  S
Zn300       O304   1.914       .  S
Zn300       O305   1.983       .  S
Zn300       O309   1.954       .  S
Zn300       O316   1.995       .  S
Zn301       O304   1.936       .  S
Zn301       O306   2.010       .  S
Zn301       O308   2.015       .  S
Zn301       O312   1.965       .  S
Zn302       O304   1.957       .  S
Zn302       O307   2.056       .  S
Zn302       O310   2.052       .  S
Zn302       O313   2.053       .  S
Zn303       O304   1.953       .  S
Zn303       O311   2.023       .  S
Zn303       O314   2.045       .  S
Zn303       O315   2.074       .  S
O305        C317   1.269       .  A
O306        C318   1.273       .  A
O307        C319   1.278       .  A
O308        C317   1.274       .  A
O309        C319   1.268       .  A
O310        C318   1.278       .  A
O311        C320   1.277       .  A
O312        C321   1.269       .  A
O313        C320   1.282       .  A
O314        C321   1.279       .  A
O315        C322   1.280       .  A
O316        C322   1.271       .  A
C317       C1188   1.476       .  S
C318       C1611   1.485       .  S
C319       C1508   1.472       .  S
C320       C1128   1.491       .  S
C321       C1148   1.469       .  S
C322       C1138   1.489       .  S
Zn323       O327   1.968   1_565  S
Zn323       O328   2.057   1_556  S
Zn323       O332   2.025       .  S
Zn323       O339   2.071       .  S
Zn324       O327   1.932       .  S
Zn324       O329   2.027       .  S
Zn324       O331   1.943   1_556  S
Zn324       O335   1.994       .  S
Zn325       O327   1.931   1_565  S
Zn325       O330   1.998       .  S
Zn325       O333   2.022       .  S
Zn325       O336   1.954       .  S
Zn326       O327   1.949       .  S
Zn326       O334   2.047       .  S
Zn326       O337   2.056       .  S
Zn326       O338   2.010       .  S
O328        C340   1.280       .  A
O329        C341   1.273       .  A
O330        C342   1.271       .  A
O331        C340   1.267   1_545  A
O332        C342   1.274       .  A
O333        C341   1.274   1_565  A
O334        C343   1.279       .  A
O335        C344   1.272       .  A
O336        C343   1.269   1_565  A
O337        C344   1.278       .  A
O338        C345   1.275   1_545  A
O339        C345   1.281       .  A
C340       C1178   1.480       .  S
C341       C1108   1.484   1_556  S
C342       C1118   1.480       .  S
C343       C1098   1.474   1_545  S
C344       C1088   1.483       .  S
C345       C1208   1.492       .  S
Zn346       O350   1.932       .  S
Zn346       O351   2.017       .  S
Zn346       O355   2.033       .  S
Zn346       O362   1.984       .  S
Zn347       O350   1.947       .  S
Zn347       O352   2.035       .  S
Zn347       O354   2.061       .  S
Zn347       O358   2.044       .  S
Zn348       O350   1.911       .  S
Zn348       O353   2.002       .  S
Zn348       O356   1.971       .  S
Zn348       O359   1.999       .  S
Zn349       O350   1.943       .  S
Zn349       O357   2.072       .  S
Zn349       O360   2.019       .  S
Zn349       O361   2.033       .  S
O351        C363   1.275       .  A
O352        C364   1.276       .  A
O353        C365   1.272       .  A
O354        C363   1.279       .  A
O355        C365   1.276       .  A
O356        C364   1.270       .  A
O357        C366   1.280       .  A
O358        C367   1.280       .  A
O359        C366   1.272       .  A
O360        C367   1.276       .  A
O361        C368   1.279       .  A
O362        C368   1.271       .  A
C363       C1078   1.497       .  S
C364       C1068   1.462       .  S
C365       C1121   1.478       .  S
C366       C1518   1.487       .  S
C367       C1058   1.489       .  S
C368       C1151   1.470       .  S
Zn369       O373   1.936       .  S
Zn369       O374   2.019       .  S
Zn369       O378   2.018       .  S
Zn369       O385   2.022       .  S
Zn370       O373   1.964       .  S
Zn370       O375   2.027       .  S
Zn370       O377   2.053       .  S
Zn370       O381   1.997       .  S
Zn371       O373   1.937       .  S
Zn371       O376   2.031       .  S
Zn371       O379   1.964       .  S
Zn371       O382   2.040       .  S
Zn372       O373   1.937       .  S
Zn372       O380   2.023       .  S
Zn372       O383   1.993       .  S
Zn372       O384   1.973       .  S
O374        C386   1.274       .  A
O375        C387   1.275       .  A
O376        C388   1.277       .  A
O377        C386   1.278       .  A
O378        C388   1.276       .  A
O379        C387   1.269       .  A
O380        C389   1.274       .  A
O381        C390   1.271       .  A
O382        C389   1.275       .  A
O383        C390   1.271       .  A
O384        C391   1.270       .  A
O385        C391   1.275       .  A
C386       C1031   1.491       .  S
C387       C1038   1.457       .  S
C388       C1021   1.485       .  S
C389       C1141   1.486       .  S
C390       C1051   1.469       .  S
C391       C1071   1.472       .  S
Zn392       O396   1.951       .  S
Zn392       O397   2.048       .  S
Zn392       O401   2.081       .  S
Zn392       O408   2.047       .  S
Zn393       O396   1.945       .  S
Zn393       O398   2.027   1_554  S
Zn393       O400   2.022       .  S
Zn393       O404   2.071       .  S
Zn394       O396   1.948       .  S
Zn394       O399   2.016       .  S
Zn394       O402   1.991   1_554  S
Zn394       O405   2.023       .  S
Zn395       O396   1.920       .  S
Zn395       O403   1.965       .  S
Zn395       O406   1.981       .  S
Zn395       O407   1.969       .  S
O397        C409   1.279       .  A
O398        C410   1.279       .  A
O399        C411   1.275       .  A
O400        C409   1.276       .  A
O401        C411   1.281       .  A
O402        C410   1.272       .  A
O403        C412   1.267       .  A
O404        C413   1.279       .  A
O405        C412   1.273       .  A
O406        C413   1.269       .  A
O407        C414   1.269       .  A
O408        C414   1.279       .  A
C409        C978   1.484       .  S
C410       C1008   1.481       .  S
C411       C1001   1.495   1_554  S
C412       C1048   1.468       .  S
C413       C1468   1.486       .  S
C414        C988   1.482       .  S
Zn415       O419   1.934       .  S
Zn415       O420   2.030       .  S
Zn415       O424   2.031       .  S
Zn415       O431   2.016       .  S
Zn416       O419   1.930       .  S
Zn416       O421   2.034       .  S
Zn416       O423   2.018       .  S
Zn416       O427   1.952       .  S
Zn417       O419   1.924       .  S
Zn417       O422   1.974       .  S
Zn417       O425   2.019       .  S
Zn417       O428   2.001       .  S
Zn418       O419   1.962       .  S
Zn418       O426   2.025       .  S
Zn418       O429   2.062       .  S
Zn418       O430   2.053       .  S
O420        C432   1.276       .  A
O421        C433   1.275       .  A
O422        C434   1.271       .  A
O423        C432   1.275       .  A
O424        C434   1.277       .  A
O425        C433   1.274       .  A
O426        C435   1.273       .  A
O427        C436   1.269       .  A
O428        C435   1.272       .  A
O429        C436   1.281       .  A
O430        C437   1.280       .  A
O431        C437   1.275       .  A
C432        C948   1.488       .  S
C433       C1381   1.491   1_655  S
C434       C1458   1.470       .  S
C435        C968   1.484       .  S
C436       C1011   1.481       .  S
C437        C958   1.481       .  S
Zn438       O442   1.935       .  S
Zn438       O443   2.020       .  S
Zn438       O447   2.004       .  S
Zn438       O454   2.040       .  S
Zn439       O442   1.933       .  S
Zn439       O444   2.006       .  S
Zn439       O446   1.967       .  S
Zn439       O450   2.035       .  S
Zn440       O442   1.969       .  S
Zn440       O445   2.071       .  S
Zn440       O448   2.021       .  S
Zn440       O451   2.050       .  S
Zn441       O442   1.931       .  S
Zn441       O449   1.944       .  S
Zn441       O452   2.025       .  S
Zn441       O453   2.017       .  S
O443        C455   1.276       .  A
O444        C456   1.272       .  A
O445        C457   1.281       .  A
O446        C455   1.271       .  A
O447        C457   1.273       .  A
O448        C456   1.273       .  A
O449        C458   1.268       .  A
O450        C459   1.275       .  A
O451        C458   1.280       .  A
O452        C459   1.273       .  A
O453        C460   1.274       .  A
O454        C460   1.277       .  A
C455        C928   1.461       .  S
C456        C971   1.486       .  S
C457       C1081   1.484       .  S
C458       C1041   1.467       .  S
C459        C938   1.491   1_655  S
C460        C918   1.488       .  S
Zn461       O465   1.914       .  S
Zn461       O466   1.998       .  S
Zn461       O470   2.002       .  S
Zn461       O477   1.957       .  S
Zn462       O465   1.935       .  S
Zn462       O467   2.024       .  S
Zn462       O469   2.061       .  S
Zn462       O473   2.004       .  S
Zn463       O465   1.937       .  S
Zn463       O468   2.009       .  S
Zn463       O471   1.978       .  S
Zn463       O474   2.010       .  S
Zn464       O465   1.958       .  S
Zn464       O472   2.061       .  S
Zn464       O475   2.072       .  S
Zn464       O476   2.061       .  S
O466        C478   1.272       .  A
O467        C479   1.277       .  A
O468        C480   1.273       .  A
O469        C478   1.279       .  A
O470        C480   1.271       .  A
O471        C479   1.269       .  A
O472        C481   1.280       .  A
O473        C482   1.274       .  A
O474        C481   1.275       .  A
O475        C482   1.282       .  A
O476        C483   1.280       .  A
O477        C483   1.269       .  A
C478       C1571   1.479       .  S
C479        C898   1.471       .  S
C480        C908   1.471       .  S
C481        C961   1.492       .  S
C482       C1131   1.495       .  S
C483        C991   1.483       .  S
Zn484       O488   1.922       .  S
Zn484       O489   2.011       .  S
Zn484       O493   1.969       .  S
Zn484       O500   2.015       .  S
Zn485       O488   1.905       .  S
Zn485       O490   1.994       .  S
Zn485       O492   2.001       .  S
Zn485       O496   1.958       .  S
Zn486       O488   1.944       .  S
Zn486       O491   2.043       .  S
Zn486       O494   2.073       .  S
Zn486       O497   2.026       .  S
Zn487       O488   1.940       .  S
Zn487       O495   2.025       .  S
Zn487       O498   2.045       .  S
Zn487       O499   2.050       .  S
O489        C501   1.274       .  A
O490        C502   1.271       .  A
O491        C503   1.279       .  A
O492        C501   1.272       .  A
O493        C503   1.270       .  A
O494        C502   1.280       .  A
O495        C504   1.278       .  A
O496        C505   1.269       .  A
O497        C504   1.277       .  A
O498        C505   1.278       .  A
O499        C506   1.275       .  A
O500        C506   1.273       .  A
C501        C911   1.481       .  S
C502       C1241   1.482       .  S
C503        C891   1.465       .  S
C504       C1161   1.487       .  S
C505        C868   1.468       .  S
C506        C878   1.479       .  S
Zn507       O511   1.974       .  S
Zn507       O512   2.056       .  S
Zn507       O516   2.036       .  S
Zn507       O523   2.086       .  S
Zn508       O511   1.941       .  S
Zn508       O513   2.040       .  S
Zn508       O515   1.949       .  S
Zn508       O519   2.019       .  S
Zn509       O511   1.934       .  S
Zn509       O514   1.991       .  S
Zn509       O517   2.030       .  S
Zn509       O520   1.968       .  S
Zn510       O511   1.936       .  S
Zn510       O518   2.012       .  S
Zn510       O521   2.029       .  S
Zn510       O522   2.010       .  S
O512        C524   1.281       .  A
O513        C525   1.274       .  A
O514        C526   1.270       .  A
O515        C524   1.269       .  A
O516        C526   1.275       .  A
O517        C525   1.274       .  A
O518        C527   1.276       .  A
O519        C528   1.273       .  A
O520        C527   1.271       .  A
O521        C528   1.274       .  A
O522        C529   1.274       .  A
O523        C529   1.282       .  A
C524        C901   1.474       .  S
C525       C1661   1.497       .  S
C526        C858   1.476       .  S
C527       C1551   1.472       .  S
C528       C1061   1.480       .  S
C529        C998   1.495       .  S
Zn530       O534   1.909       .  S
Zn530       O535   2.000       .  S
Zn530       O539   1.965       .  S
Zn530       O546   1.991       .  S
Zn531       O534   1.925       .  S
Zn531       O536   2.017       .  S
Zn531       O538   2.026       .  S
Zn531       O542   1.979   1_556  S
Zn532       O534   1.946       .  S
Zn532       O537   2.032       .  S
Zn532       O540   2.066       .  S
Zn532       O543   2.048       .  S
Zn533       O534   1.937       .  S
Zn533       O541   2.014       .  S
Zn533       O544   2.030   1_556  S
Zn533       O545   2.067       .  S
O535        C547   1.272       .  A
O536        C548   1.276       .  A
O537        C549   1.276       .  A
O538        C547   1.276       .  A
O539        C549   1.269       .  A
O540        C548   1.280       .  A
O541        C550   1.276       .  A
O542        C551   1.271       .  A
O543        C550   1.279       .  A
O544        C551   1.278       .  A
O545        C552   1.279       .  A
O546        C552   1.270       .  A
C547        C861   1.481       .  S
C548       C1301   1.496   1_556  S
C549       C1231   1.464       .  S
C550       C1091   1.484       .  S
C551        C888   1.473       .  S
C552        C848   1.477       .  S
Zn553       O557   1.932   1_545  S
Zn553       O558   2.045       .  S
Zn553       O562   1.965       .  S
Zn553       O569   2.026       .  S
Zn554       O557   1.926       .  S
Zn554       O559   1.981       .  S
Zn554       O561   2.017       .  S
Zn554       O565   1.972       .  S
Zn555       O557   1.960       .  S
Zn555       O560   2.050       .  S
Zn555       O563   2.026       .  S
Zn555       O566   2.076       .  S
Zn556       O557   1.933   1_545  S
Zn556       O564   2.018       .  S
Zn556       O567   2.014       .  S
Zn556       O568   2.024       .  S
O558        C570   1.277       .  A
O559        C571   1.270       .  A
O560        C572   1.279       .  A
O561        C570   1.274   1_565  A
O562        C572   1.270   1_545  A
O563        C571   1.274       .  A
O564        C573   1.273   1_545  A
O565        C574   1.270       .  A
O566        C573   1.282       .  A
O567        C574   1.275   1_545  A
O568        C575   1.275       .  A
O569        C575   1.278       .  A
C570        C821   1.483       .  S
C571        C838   1.463       .  S
C572        C828   1.478       .  S
C573       C1278   1.484       .  S
C574        C808   1.475       .  S
C575       C1331   1.489       .  S
Zn576       O580   1.931       .  S
Zn576       O581   2.020       .  S
Zn576       O585   1.990   1_556  S
Zn576       O592   2.024       .  S
Zn577       O580   1.901       .  S
Zn577       O582   1.993       .  S
Zn577       O584   1.990       .  S
Zn577       O588   1.949       .  S
Zn578       O580   1.926       .  S
Zn578       O583   2.012   1_556  S
Zn578       O586   2.062       .  S
Zn578       O589   2.008       .  S
Zn579       O580   1.945       .  S
Zn579       O587   2.049       .  S
Zn579       O590   2.038       .  S
Zn579       O591   2.058       .  S
O581        C593   1.275       .  A
O582        C594   1.270       .  A
O583        C595   1.278       .  A
O584        C593   1.271       .  A
O585        C595   1.271       .  A
O586        C594   1.279       .  A
O587        C596   1.280       .  A
O588        C597   1.268       .  A
O589        C596   1.274       .  A
O590        C597   1.276       .  A
O591        C598   1.279       .  A
O592        C598   1.276       .  A
C593        C841   1.480       .  S
C594       C1621   1.483       .  S
C595        C798   1.475       .  S
C596       C1371   1.483       .  S
C597        C931   1.464       .  S
C598       C1028   1.489   1_456  S
Zn599       O603   1.934   1_545  S
Zn599       O604   2.017       .  S
Zn599       O608   2.026   1_545  S
Zn599       O615   2.064   1_545  S
Zn600       O603   1.947   1_545  S
Zn600       O605   2.060       .  S
Zn600       O607   2.048       .  S
Zn600       O611   2.047       .  S
Zn601       O603   1.932       .  S
Zn601       O606   1.994       .  S
Zn601       O609   2.026       .  S
Zn601       O612   2.025       .  S
Zn602       O603   1.909       .  S
Zn602       O610   1.999       .  S
Zn602       O613   1.953       .  S
Zn602       O614   1.989       .  S
O604        C616   1.276       .  A
O605        C617   1.279   1_545  A
O606        C618   1.273       .  A
O607        C616   1.280       .  A
O608        C618   1.279       .  A
O609        C617   1.276       .  A
O610        C619   1.271       .  A
O611        C620   1.279       .  A
O612        C619   1.276       .  A
O613        C620   1.267   1_565  A
O614        C621   1.270       .  A
O615        C621   1.279       .  A
C616       C1398   1.489       .  S
C617       C1218   1.493       .  S
C618        C831   1.481       .  S
C619        C788   1.479       .  S
C620       C1261   1.477       .  S
C621        C781   1.477       .  S
Zn622       O626   1.924       .  S
Zn622       O627   1.984       .  S
Zn622       O631   2.002       .  S
Zn622       O638   1.972       .  S
Zn623       O626   1.968       .  S
Zn623       O628   2.058       .  S
Zn623       O630   2.035       .  S
Zn623       O634   2.073       .  S
Zn624       O626   1.931       .  S
Zn624       O629   2.027       .  S
Zn624       O632   1.948       .  S
Zn624       O635   2.016       .  S
Zn625       O626   1.929       .  S
Zn625       O633   2.032       .  S
Zn625       O636   2.001       .  S
Zn625       O637   2.016       .  S
O627        C639   1.270       .  A
O628        C640   1.281       .  A
O629        C641   1.274       .  A
O630        C639   1.274       .  A
O631        C641   1.271       .  A
O632        C640   1.268       .  A
O633        C642   1.275       .  A
O634        C643   1.283       .  A
O635        C642   1.274       .  A
O636        C643   1.274       .  A
O637        C644   1.276       .  A
O638        C644   1.270       .  A
C639        C791   1.478       .  S
C640        C801   1.480       .  S
C641       C1531   1.485       .  S
C642       C1451   1.484       .  S
C643        C941   1.495       .  S
C644       C1598   1.474       .  S
Zn645       O649   1.930       .  S
Zn645       O650   1.994       .  S
Zn645       O654   2.028       .  S
Zn645       O661   2.027       .  S
Zn646       O649   1.968       .  S
Zn646       O651   2.054       .  S
Zn646       O653   2.071       .  S
Zn646       O657   2.015       .  S
Zn647       O649   1.930       .  S
Zn647       O652   2.023       .  S
Zn647       O655   1.957       .  S
Zn647       O658   2.031       .  S
Zn648       O649   1.923       .  S
Zn648       O656   2.018       .  S
Zn648       O659   1.991       .  S
Zn648       O660   1.977       .  S
O650        C662   1.273       .  A
O651        C663   1.279       .  A
O652        C664   1.276       .  A
O653        C662   1.281       .  A
O654        C664   1.277       .  A
O655        C663   1.268       .  A
O656        C665   1.274       .  A
O657        C666   1.273       .  A
O658        C665   1.276       .  A
O659        C666   1.271       .  A
O660        C667   1.271       .  A
O661        C667   1.275       .  A
C662       C1418   1.488       .  S
C663        C758   1.466       .  S
C664        C951   1.489       .  S
C665        C851   1.488       .  S
C666        C768   1.470       .  S
C667        C871   1.468       .  S
Zn668       O672   1.943       .  S
Zn668       O673   2.037       .  S
Zn668       O677   2.035       .  S
Zn668       O684   2.085       .  S
Zn669       O672   1.934   1_545  S
Zn669       O674   2.016       .  S
Zn669       O676   1.964       .  S
Zn669       O680   2.015       .  S
Zn670       O672   1.944       .  S
Zn670       O675   2.036       .  S
Zn670       O678   2.046       .  S
Zn670       O681   2.027       .  S
Zn671       O672   1.910   1_545  S
Zn671       O679   1.964   1_545  S
Zn671       O682   1.993       .  S
Zn671       O683   1.989       .  S
O673        C685   1.280   1_565  A
O674        C686   1.274   1_545  A
O675        C687   1.279       .  A
O676        C685   1.268       .  A
O677        C687   1.278       .  A
O678        C686   1.277       .  A
O679        C688   1.269       .  A
O680        C689   1.274       .  A
O681        C688   1.274       .  A
O682        C689   1.271       .  A
O683        C690   1.271   1_545  A
O684        C690   1.281       .  A
C685        C751   1.476       .  S
C686       C1168   1.489       .  S
C687        C921   1.481       .  S
C688       C1101   1.460       .  S
C689        C771   1.478       .  S
C690        C818   1.491       .  S
Zn691       O695   1.931       .  S
Zn691       O696   2.030       .  S
Zn691       O700   2.013       .  S
Zn691       O707   1.961   1_554  S
Zn692       O695   1.931       .  S
Zn692       O697   1.971       .  S
Zn692       O699   2.025       .  S
Zn692       O703   1.996       .  S
Zn693       O695   1.941       .  S
Zn693       O698   2.050       .  S
Zn693       O701   2.036       .  S
Zn693       O704   2.009       .  S
Zn694       O695   1.969       .  S
Zn694       O702   2.061       .  S
Zn694       O705   2.024       .  S
Zn694       O706   2.052       .  S
O696        C708   1.274       .  A
O697        C709   1.271       .  A
O698        C710   1.279       .  A
O699        C708   1.274       .  A
O700        C710   1.275       .  A
O701        C709   1.277       .  A
O702        C711   1.280       .  A
O703        C712   1.271       .  A
O704        C711   1.274       .  A
O705        C712   1.274       .  A
O706        C713   1.279   1_554  A
O707        C713   1.269       .  A
C708       C1348   1.490   1_654  S
C709       C1411   1.469       .  S
C710        C981   1.487       .  S
C711        C881   1.494       .  S
C712        C741   1.484       .  S
C713        C761   1.468       .  S
Zn714       O718   1.922   1_545  S
Zn714       O719   2.021       .  S
Zn714       O723   1.998       .  S
Zn714       O730   1.972       .  S
Zn715       O718   1.918       .  S
Zn715       O720   1.937       .  S
Zn715       O722   2.021       .  S
Zn715       O726   2.012       .  S
Zn716       O718   1.956   1_545  S
Zn716       O721   2.022       .  S
Zn716       O724   2.061       .  S
Zn716       O727   2.064       .  S
Zn717       O718   1.916       .  S
Zn717       O725   2.001       .  S
Zn717       O728   2.029       .  S
Zn717       O729   2.017       .  S
O719        C731   1.275   1_545  A
O720        C732   1.266   1_565  A
O721        C733   1.273       .  A
O722        C731   1.275       .  A
O723        C733   1.272       .  A
O724        C732   1.281       .  A
O725        C734   1.275   1_565  A
O726        C735   1.274       .  A
O727        C734   1.282       .  A
O728        C735   1.275       .  A
O729        C736   1.276       .  A
O730        C736   1.271   1_545  A
C731        C778   1.483   1_655  S
C732        C748   1.476       .  S
C733        C738   1.484       .  S
C734       C1111   1.494       .  S
C735       C1018   1.488       .  S
C736        C811   1.475       .  S
C737        C738   1.405       .  A
C737        C742   1.394       .  A
C737        H744   1.083       .  S
C738        C739   1.410       .  A
C739        C740   1.400       .  A
C739        F746   1.357       .  S
C740        C741   1.406       .  A
C740        H745   1.083       .  S
C741        C742   1.409       .  A
C742        F743   1.358       .  S
C747        C748   1.398       .  A
C747        C752   1.398       .  A
C747        H754   1.083       .  S
C748        C749   1.415       .  A
C749        C750   1.390       .  A
C749        F756   1.357   1_545  S
C750        C751   1.397       .  A
C750        H755   1.083   1_545  S
C751        C752   1.417       .  A
C752        F753   1.358       .  S
C757        C758   1.395       .  A
C757        C762   1.395       .  A
C757        H764   1.083       .  S
C758        C759   1.412       .  A
C759        C760   1.397       .  A
C759        F766   1.358       .  S
C760        C761   1.397       .  A
C760        H765   1.083       .  S
C761        C762   1.412       .  A
C762        F763   1.358       .  S
C767        C768   1.404       .  A
C767        C772   1.395       .  A
C767        H774   1.084       .  S
C768        C769   1.403       .  A
C769        C770   1.396       .  A
C769        F776   1.358       .  S
C770        C771   1.408       .  A
C770        H775   1.083       .  S
C771        C772   1.407       .  A
C772        F773   1.357       .  S
C777        C778   1.404   1_545  A
C777        C782   1.398       .  A
C777        H784   1.083       .  S
C778        C779   1.411       .  A
C779        C780   1.402       .  A
C779        F786   1.357   1_455  S
C780        C781   1.402       .  A
C780        H785   1.083       .  S
C781        C782   1.408   1_565  A
C782        F783   1.358       .  S
C787        C788   1.408       .  A
C787        C792   1.400       .  A
C787        H794   1.083       .  S
C788        C789   1.405       .  A
C789        C790   1.394       .  A
C789        F796   1.358       .  S
C790        C791   1.406       .  A
C790        H795   1.083       .  S
C791        C792   1.406       .  A
C792        F793   1.357       .  S
C797        C798   1.399       .  A
C797        C802   1.388       .  A
C797        H804   1.084       .  S
C798        C799   1.411       .  A
C799        C800   1.402       .  A
C799        F806   1.357       .  S
C800        C801   1.405       .  A
C800        H805   1.083       .  S
C801        C802   1.413       .  A
C802        F803   1.358       .  S
C807        C808   1.408       .  A
C807        C812   1.393   1_455  A
C807        H814   1.083   1_455  S
C808        C809   1.405   1_566  A
C809        C810   1.392       .  A
C809        F816   1.357       .  S
C810        C811   1.407   1_445  A
C810        H815   1.083       .  S
C811        C812   1.405   1_554  A
C812        F813   1.358       .  S
C817        C818   1.409       .  A
C817        C822   1.398       .  A
C817        H824   1.083       .  S
C818        C819   1.409   1_565  A
C819        C820   1.408   1_655  A
C819        F826   1.357       .  S
C820        C821   1.408       .  A
C820        H825   1.083       .  S
C821        C822   1.404   1_445  A
C822        F823   1.358       .  S
C827        C828   1.409       .  A
C827        C832   1.392       .  A
C827        H834   1.084   1_565  S
C828        C829   1.403       .  A
C829        C830   1.401       .  A
C829        F836   1.357       .  S
C830        C831   1.412       .  A
C830        H835   1.083       .  S
C831        C832   1.404       .  A
C832        F833   1.358   1_565  S
C837        C838   1.402       .  A
C837        C842   1.395       .  A
C837        H844   1.084       .  S
C838        C839   1.399       .  A
C839        C840   1.396       .  A
C839        F846   1.358       .  S
C840        C841   1.410       .  A
C840        H845   1.083       .  S
C841        C842   1.408       .  A
C842        F843   1.357       .  S
C847        C848   1.403       .  A
C847        C852   1.397       .  A
C847        H854   1.084       .  S
C848        C849   1.404       .  A
C849        C850   1.405       .  A
C849        F856   1.357       .  S
C850        C851   1.410       .  A
C850        H855   1.083       .  S
C851        C852   1.409       .  A
C852        F853   1.358       .  S
C857        C858   1.406       .  A
C857        C862   1.397       .  A
C857        H864   1.083       .  S
C858        C859   1.404       .  A
C859        C860   1.398       .  A
C859        F866   1.357       .  S
C860        C861   1.408       .  A
C860        H865   1.083       .  S
C861        C862   1.407       .  A
C862        F863   1.358       .  S
C867        C868   1.404       .  A
C867        C872   1.400       .  A
C867        H874   1.083       .  S
C868        C869   1.406       .  A
C869        C870   1.389       .  A
C869        F876   1.358       .  S
C870        C871   1.401       .  A
C870        H875   1.084       .  S
C871        C872   1.407       .  A
C872        F873   1.357       .  S
C877        C878   1.406       .  A
C877        C882   1.407       .  A
C877        H884   1.083       .  S
C878        C879   1.402       .  A
C879        C880   1.397       .  A
C879        F886   1.358       .  S
C880        C881   1.410       .  A
C880        H885   1.083       .  S
C881        C882   1.412       .  A
C882        F883   1.357       .  S
C887        C888   1.400       .  A
C887        C892   1.395       .  A
C887        H894   1.083       .  S
C888        C889   1.414       .  A
C889        C890   1.396       .  A
C889        F896   1.358       .  S
C890        C891   1.396       .  A
C890        H895   1.083       .  S
C891        C892   1.409       .  A
C892        F893   1.358       .  S
C897        C898   1.400       .  A
C897        C902   1.390       .  A
C897        H904   1.084       .  S
C898        C899   1.409       .  A
C899        C900   1.400       .  A
C899        F906   1.357       .  S
C900        C901   1.403       .  A
C900        H905   1.083       .  S
C901        C902   1.410       .  A
C902        F903   1.358       .  S
C907        C908   1.401       .  A
C907        C912   1.396       .  A
C907        H914   1.083       .  S
C908        C909   1.405       .  A
C909        C910   1.396       .  A
C909        F916   1.358       .  S
C910        C911   1.406       .  A
C910        H915   1.083       .  S
C911        C912   1.411       .  A
C912        F913   1.357       .  S
C917        C918   1.407       .  A
C917        C922   1.400       .  A
C917        H924   1.083       .  S
C918        C919   1.411       .  A
C919        C920   1.402       .  A
C919        F926   1.358       .  S
C920        C921   1.405       .  A
C920        H925   1.083       .  S
C921        C922   1.406       .  A
C922        F923   1.357       .  S
C927        C928   1.404       .  A
C927        C932   1.400       .  A
C927        H934   1.083       .  S
C928        C929   1.402   1_655  A
C929        C930   1.386       .  A
C929        F936   1.358       .  S
C930        C931   1.402       .  A
C930        H935   1.084       .  S
C931        C932   1.405   1_455  A
C932        F933   1.357       .  S
C937        C938   1.409       .  A
C937        C942   1.406       .  A
C937        H944   1.083       .  S
C938        C939   1.406       .  A
C939        C940   1.399       .  A
C939        F946   1.358       .  S
C940        C941   1.410       .  A
C940        H945   1.083       .  S
C941        C942   1.409       .  A
C942        F943   1.357       .  S
C947        C948   1.407       .  A
C947        C952   1.400       .  A
C947        H954   1.083       .  S
C948        C949   1.409       .  A
C949        C950   1.399       .  A
C949        F956   1.357       .  S
C950        C951   1.407       .  A
C950        H955   1.083       .  S
C951        C952   1.410       .  A
C952        F953   1.357       .  S
C957        C958   1.405       .  A
C957        C962   1.405       .  A
C957        H964   1.082       .  S
C958        C959   1.405       .  A
C959        C960   1.400       .  A
C959        F966   1.358       .  S
C960        C961   1.409       .  A
C960        H965   1.082       .  S
C961        C962   1.411       .  A
C962        F963   1.357       .  S
C967        C968   1.405       .  A
C967        C972   1.396       .  A
C967        H974   1.083       .  S
C968        C969   1.409       .  A
C969        C970   1.400       .  A
C969        F976   1.358       .  S
C970        C971   1.407       .  A
C970        H975   1.083       .  S
C971        C972   1.410       .  A
C972        F973   1.357       .  S
C977        C978   1.405       .  A
C977        C982   1.399       .  A
C977        H984   1.083       .  S
C978        C979   1.408       .  A
C979        C980   1.403       .  A
C979        F986   1.357       .  S
C980        C981   1.407       .  A
C980        H985   1.083       .  S
C981        C982   1.409       .  A
C982        F983   1.358       .  S
C987        C988   1.412       .  A
C987        C992   1.399       .  A
C987        H994   1.083       .  S
C988        C989   1.403       .  A
C989        C990   1.394       .  A
C989        F996   1.357       .  S
C990        C991   1.411       .  A
C990        H995   1.083       .  S
C991        C992   1.405       .  A
C992        F993   1.357       .  S
C997        C998   1.409       .  A
C997       C1002   1.413       .  A
C997       H1004   1.083       .  S
C998        C999   1.409       .  A
C999       C1000   1.399       .  A
C999       F1006   1.358       .  S
C1000      C1001   1.405       .  A
C1000      H1005   1.083   1_556  S
C1001      C1002   1.412       .  A
C1002      F1003   1.357       .  S
C1007      C1008   1.413       .  A
C1007      C1012   1.402       .  A
C1007      H1014   1.083       .  S
C1008      C1009   1.403       .  A
C1009      C1010   1.389       .  A
C1009      F1016   1.358       .  S
C1010      C1011   1.410       .  A
C1010      H1015   1.083       .  S
C1011      C1012   1.404       .  A
C1012      F1013   1.357       .  S
C1017      C1018   1.408       .  A
C1017      C1022   1.400       .  A
C1017      H1024   1.083       .  S
C1018      C1019   1.410       .  A
C1019      C1020   1.398       .  A
C1019      F1026   1.357       .  S
C1020      C1021   1.406       .  A
C1020      H1025   1.083       .  S
C1021      C1022   1.408       .  A
C1022      F1023   1.357       .  S
C1027      C1028   1.405       .  A
C1027      C1032   1.400       .  A
C1027      H1034   1.083       .  S
C1028      C1029   1.410       .  A
C1029      C1030   1.407       .  A
C1029      F1036   1.357   1_655  S
C1030      C1031   1.407       .  A
C1030      H1035   1.083       .  S
C1031      C1032   1.410       .  A
C1032      F1033   1.358       .  S
C1037      C1038   1.407       .  A
C1037      C1042   1.395       .  A
C1037      H1044   1.084       .  S
C1038      C1039   1.395       .  A
C1039      C1040   1.393       .  A
C1039      F1046   1.358       .  S
C1040      C1041   1.412       .  A
C1040      H1045   1.084       .  S
C1041      C1042   1.398       .  A
C1042      F1043   1.357       .  S
C1047      C1048   1.405       .  A
C1047      C1052   1.392       .  A
C1047      H1054   1.084       .  S
C1048      C1049   1.404       .  A
C1049      C1050   1.396       .  A
C1049      F1056   1.357       .  S
C1050      C1051   1.406       .  A
C1050      H1055   1.083       .  S
C1051      C1052   1.404       .  A
C1052      F1053   1.358       .  S
C1057      C1058   1.407       .  A
C1057      C1062   1.401       .  A
C1057      H1064   1.083       .  S
C1058      C1059   1.412       .  A
C1059      C1060   1.400       .  A
C1059      F1066   1.357       .  S
C1060      C1061   1.402       .  A
C1060      H1065   1.083       .  S
C1061      C1062   1.407       .  A
C1062      F1063   1.358       .  S
C1067      C1068   1.402       .  A
C1067      C1072   1.399       .  A
C1067      H1074   1.083       .  S
C1068      C1069   1.402   1_556  A
C1069      C1070   1.390       .  A
C1069      F1076   1.358       .  S
C1070      C1071   1.405       .  A
C1070      H1075   1.083       .  S
C1071      C1072   1.408   1_554  A
C1072      F1073   1.357       .  S
C1077      C1078   1.409       .  A
C1077      C1082   1.398       .  A
C1077      H1084   1.083       .  S
C1078      C1079   1.414       .  A
C1079      C1080   1.409       .  A
C1079      F1086   1.357       .  S
C1080      C1081   1.405       .  A
C1080      H1085   1.084       .  S
C1081      C1082   1.405       .  A
C1082      F1083   1.358       .  S
C1087      C1088   1.407       .  A
C1087      C1092   1.405       .  A
C1087      H1094   1.083       .  S
C1088      C1089   1.407       .  A
C1089      C1090   1.396       .  A
C1089      F1096   1.358       .  S
C1090      C1091   1.405       .  A
C1090      H1095   1.083       .  S
C1091      C1092   1.409       .  A
C1092      F1093   1.357       .  S
C1097      C1098   1.407       .  A
C1097      C1102   1.387       .  A
C1097      H1104   1.083       .  S
C1098      C1099   1.408       .  A
C1099      C1100   1.401       .  A
C1099      F1106   1.357   1_565  S
C1100      C1101   1.403       .  A
C1100      H1105   1.083       .  S
C1101      C1102   1.399       .  A
C1102      F1103   1.358       .  S
C1107      C1108   1.408       .  A
C1107      C1112   1.406       .  A
C1107      H1114   1.083       .  S
C1108      C1109   1.403   1_545  A
C1109      C1110   1.396       .  A
C1109      F1116   1.358   1_554  S
C1110      C1111   1.410   1_565  A
C1110      H1115   1.083       .  S
C1111      C1112   1.410       .  A
C1112      F1113   1.357       .  S
C1117      C1118   1.408       .  A
C1117      C1122   1.399       .  A
C1117      H1124   1.083       .  S
C1118      C1119   1.406       .  A
C1119      C1120   1.397       .  A
C1119      F1126   1.357       .  S
C1120      C1121   1.406       .  A
C1120      H1125   1.083       .  S
C1121      C1122   1.406       .  A
C1122      F1123   1.358       .  S
C1127      C1128   1.410       .  A
C1127      C1132   1.404       .  A
C1127      H1134   1.083       .  S
C1128      C1129   1.406       .  A
C1129      C1130   1.400       .  A
C1129      F1136   1.358       .  S
C1130      C1131   1.411       .  A
C1130      H1135   1.083       .  S
C1131      C1132   1.408       .  A
C1132      F1133   1.357       .  S
C1137      C1138   1.406       .  A
C1137      C1142   1.407       .  A
C1137      H1144   1.083       .  S
C1138      C1139   1.411       .  A
C1139      C1140   1.399       .  A
C1139      F1146   1.358       .  S
C1140      C1141   1.402       .  A
C1140      H1145   1.083       .  S
C1141      C1142   1.410       .  A
C1142      F1143   1.357       .  S
C1147      C1148   1.408       .  A
C1147      C1152   1.394       .  A
C1147      H1154   1.085       .  S
C1148      C1149   1.400       .  A
C1149      C1150   1.398       .  A
C1149      F1156   1.357       .  S
C1150      C1151   1.409       .  A
C1150      H1155   1.084       .  S
C1151      C1152   1.400       .  A
C1152      F1153   1.357       .  S
C1157      C1158   1.407       .  A
C1157      C1162   1.397       .  A
C1157      H1164   1.083       .  S
C1158      C1159   1.408       .  A
C1159      C1160   1.401       .  A
C1159      F1166   1.357       .  S
C1160      C1161   1.409       .  A
C1160      H1165   1.083       .  S
C1161      C1162   1.408       .  A
C1162      F1163   1.357       .  S
C1167      C1168   1.409   1_545  A
C1167      C1172   1.401       .  A
C1167      H1174   1.083       .  S
C1168      C1169   1.408       .  A
C1169      C1170   1.403       .  A
C1169      F1176   1.357       .  S
C1170      C1171   1.408       .  A
C1170      H1175   1.083       .  S
C1171      C1172   1.406   1_565  A
C1172      F1173   1.357       .  S
C1177      C1178   1.410   1_545  A
C1177      C1182   1.390       .  A
C1177      H1184   1.083       .  S
C1178      C1179   1.405       .  A
C1179      C1180   1.400       .  A
C1179      F1186   1.357       .  S
C1180      C1181   1.410       .  A
C1180      H1185   1.083       .  S
C1181      C1182   1.404   1_565  A
C1182      F1183   1.358       .  S
C1187      C1188   1.403       .  A
C1187      C1192   1.394       .  A
C1187      H1194   1.083       .  S
C1188      C1189   1.411       .  A
C1189      C1190   1.394       .  A
C1189      F1196   1.358       .  S
C1190      C1191   1.400       .  A
C1190      H1195   1.083       .  S
C1191      C1192   1.407       .  A
C1192      F1193   1.358       .  S
C1197      C1198   1.401       .  A
C1197      C1202   1.391   1_565  A
C1197      H1204   1.084       .  S
C1198      C1199   1.405   1_565  A
C1199      C1200   1.398       .  A
C1199      F1206   1.358       .  S
C1200      C1201   1.404       .  A
C1200      H1205   1.083       .  S
C1201      C1202   1.407       .  A
C1202      F1203   1.358       .  S
C1207      C1208   1.405   1_545  A
C1207      C1212   1.398       .  A
C1207      H1214   1.083       .  S
C1208      C1209   1.409       .  A
C1209      C1210   1.409       .  A
C1209      F1216   1.357       .  S
C1210      C1211   1.411       .  A
C1210      H1215   1.083       .  S
C1211      C1212   1.411   1_565  A
C1212      F1213   1.357       .  S
C1217      C1218   1.406       .  A
C1217      C1222   1.401       .  A
C1217      H1224   1.083       .  S
C1218      C1219   1.411   1_565  A
C1219      C1220   1.408       .  A
C1219      F1226   1.357       .  S
C1220      C1221   1.406   1_545  A
C1220      H1225   1.083       .  S
C1221      C1222   1.409       .  A
C1222      F1223   1.358       .  S
C1227      C1228   1.402       .  A
C1227      C1232   1.390       .  A
C1227      H1234   1.084       .  S
C1228      C1229   1.407       .  A
C1229      C1230   1.398       .  A
C1229      F1236   1.357       .  S
C1230      C1231   1.402       .  A
C1230      H1235   1.083       .  S
C1231      C1232   1.405       .  A
C1232      F1233   1.358       .  S
C1237      C1238   1.404       .  A
C1237      C1242   1.399       .  A
C1237      H1244   1.083       .  S
C1238      C1239   1.412       .  A
C1239      C1240   1.405       .  A
C1239      F1246   1.357       .  S
C1240      C1241   1.403       .  A
C1240      H1245   1.083       .  S
C1241      C1242   1.408       .  A
C1242      F1243   1.358       .  S
C1247      C1248   1.406       .  A
C1247      C1252   1.395       .  A
C1247      H1254   1.083       .  S
C1248      C1249   1.410       .  A
C1249      C1250   1.400       .  A
C1249      F1256   1.357       .  S
C1250      C1251   1.406       .  A
C1250      H1255   1.083       .  S
C1251      C1252   1.407       .  A
C1252      F1253   1.358       .  S
C1257      C1258   1.400       .  A
C1257      C1262   1.392       .  A
C1257      H1264   1.083       .  S
C1258      C1259   1.412   1_565  A
C1259      C1260   1.396       .  A
C1259      F1266   1.358       .  S
C1260      C1261   1.402       .  A
C1260      H1265   1.083       .  S
C1261      C1262   1.413   1_545  A
C1262      F1263   1.358       .  S
C1267      C1268   1.403       .  A
C1267      C1272   1.399       .  A
C1267      H1274   1.083       .  S
C1268      C1269   1.413   1_545  A
C1269      C1270   1.403       .  A
C1269      F1276   1.357       .  S
C1270      C1271   1.403   1_565  A
C1270      H1275   1.083       .  S
C1271      C1272   1.411       .  A
C1272      F1273   1.358       .  S
C1277      C1278   1.402   1_545  A
C1277      C1282   1.404       .  A
C1277      H1284   1.083       .  S
C1278      C1279   1.409       .  A
C1279      C1280   1.405       .  A
C1279      F1286   1.357       .  S
C1280      C1281   1.405       .  A
C1280      H1285   1.083   1_556  S
C1281      C1282   1.413   1_565  A
C1282      F1283   1.358       .  S
C1287      C1288   1.411   1_565  A
C1287      C1292   1.390   1_565  A
C1287      H1294   1.083       .  S
C1288      C1289   1.403       .  A
C1289      C1290   1.400       .  A
C1289      F1296   1.357       .  S
C1290      C1291   1.413       .  A
C1290      H1295   1.083       .  S
C1291      C1292   1.402       .  A
C1292      F1293   1.358   1_545  S
C1297      C1298   1.406       .  A
C1297      C1302   1.409       .  A
C1297      H1304   1.083       .  S
C1298      C1299   1.405       .  A
C1299      C1300   1.399       .  A
C1299      F1306   1.358       .  S
C1300      C1301   1.408       .  A
C1300      H1305   1.083       .  S
C1301      C1302   1.413       .  A
C1302      F1303   1.357       .  S
C1307      C1308   1.409       .  A
C1307      C1312   1.392       .  A
C1307      H1314   1.084       .  S
C1308      C1309   1.398       .  A
C1309      C1310   1.396       .  A
C1309      F1316   1.357       .  S
C1310      C1311   1.408       .  A
C1310      H1315   1.084       .  S
C1311      C1312   1.395       .  A
C1312      F1313   1.358       .  S
C1317      C1318   1.402       .  A
C1317      C1322   1.399       .  A
C1317      H1324   1.083       .  S
C1318      C1319   1.408       .  A
C1319      C1320   1.394       .  A
C1319      F1326   1.358       .  S
C1320      C1321   1.403       .  A
C1320      H1325   1.083       .  S
C1321      C1322   1.411       .  A
C1322      F1323   1.357       .  S
C1327      C1328   1.404       .  A
C1327      C1332   1.402       .  A
C1327      H1334   1.083       .  S
C1328      C1329   1.409       .  A
C1329      C1330   1.396       .  A
C1329      F1336   1.358       .  S
C1330      C1331   1.405       .  A
C1330      H1335   1.083       .  S
C1331      C1332   1.413       .  A
C1332      F1333   1.357       .  S
C1337      C1338   1.408       .  A
C1337      C1342   1.395   1_556  A
C1337      H1344   1.083       .  S
C1338      C1339   1.405   1_556  A
C1339      C1340   1.389       .  A
C1339      F1346   1.358       .  S
C1340      C1341   1.406       .  A
C1340      H1345   1.083       .  S
C1341      C1342   1.405       .  A
C1342      F1343   1.358       .  S
C1347      C1348   1.403       .  A
C1347      C1352   1.398       .  A
C1347      H1354   1.083   1_556  S
C1348      C1349   1.411       .  A
C1349      C1350   1.405       .  A
C1349      F1356   1.357   1_455  S
C1350      C1351   1.407       .  A
C1350      H1355   1.083       .  S
C1351      C1352   1.413       .  A
C1352      F1353   1.358       .  S
C1357      C1358   1.410       .  A
C1357      C1362   1.403       .  A
C1357      H1364   1.083       .  S
C1358      C1359   1.409       .  A
C1359      C1360   1.398       .  A
C1359      F1366   1.357       .  S
C1360      C1361   1.406       .  A
C1360      H1365   1.083       .  S
C1361      C1362   1.406       .  A
C1362      F1363   1.357       .  S
C1367      C1368   1.404       .  A
C1367      C1372   1.398       .  A
C1367      H1374   1.083       .  S
C1368      C1369   1.410       .  A
C1369      C1370   1.402       .  A
C1369      F1376   1.357       .  S
C1370      C1371   1.405       .  A
C1370      H1375   1.083       .  S
C1371      C1372   1.409       .  A
C1372      F1373   1.358       .  S
C1377      C1378   1.406       .  A
C1377      C1382   1.397       .  A
C1377      H1384   1.083       .  S
C1378      C1379   1.408       .  A
C1379      C1380   1.405       .  A
C1379      F1386   1.357       .  S
C1380      C1381   1.410       .  A
C1380      H1385   1.083       .  S
C1381      C1382   1.409       .  A
C1382      F1383   1.358       .  S
C1387      C1388   1.408       .  A
C1387      C1392   1.403       .  A
C1387      H1394   1.083       .  S
C1388      C1389   1.408       .  A
C1389      C1390   1.396       .  A
C1389      F1396   1.358       .  S
C1390      C1391   1.407       .  A
C1390      H1395   1.083       .  S
C1391      C1392   1.410       .  A
C1392      F1393   1.357       .  S
C1397      C1398   1.408       .  A
C1397      C1402   1.401       .  A
C1397      H1404   1.083       .  S
C1398      C1399   1.407       .  A
C1399      C1400   1.401       .  A
C1399      F1406   1.357       .  S
C1400      C1401   1.409       .  A
C1400      H1405   1.083       .  S
C1401      C1402   1.410       .  A
C1402      F1403   1.357       .  S
C1407      C1408   1.404   1_655  A
C1407      C1412   1.401       .  A
C1407      H1414   1.083       .  S
C1408      C1409   1.405       .  A
C1409      C1410   1.390       .  A
C1409      F1416   1.358       .  S
C1410      C1411   1.402   1_455  A
C1410      H1415   1.084       .  S
C1411      C1412   1.407       .  A
C1412      F1413   1.357       .  S
C1417      C1418   1.406       .  A
C1417      C1422   1.395       .  A
C1417      H1424   1.083       .  S
C1418      C1419   1.409       .  A
C1419      C1420   1.409       .  A
C1419      F1426   1.357       .  S
C1420      C1421   1.409       .  A
C1420      H1425   1.083   1_655  S
C1421      C1422   1.406       .  A
C1422      F1423   1.358       .  S
C1427      C1428   1.410       .  A
C1427      C1432   1.411       .  A
C1427      H1434   1.083       .  S
C1428      C1429   1.406       .  A
C1429      C1430   1.398       .  A
C1429      F1436   1.357       .  S
C1430      C1431   1.406       .  A
C1430      H1435   1.083       .  S
C1431      C1432   1.409       .  A
C1432      F1433   1.357       .  S
C1437      C1438   1.410       .  A
C1437      C1442   1.388       .  A
C1437      H1444   1.083       .  S
C1438      C1439   1.405       .  A
C1439      C1440   1.403       .  A
C1439      F1446   1.357       .  S
C1440      C1441   1.411       .  A
C1440      H1445   1.083       .  S
C1441      C1442   1.402       .  A
C1442      F1443   1.358       .  S
C1447      C1448   1.407       .  A
C1447      C1452   1.398       .  A
C1447      H1454   1.083       .  S
C1448      C1449   1.407       .  A
C1449      C1450   1.402       .  A
C1449      F1456   1.357       .  S
C1450      C1451   1.407       .  A
C1450      H1455   1.083       .  S
C1451      C1452   1.407       .  A
C1452      F1453   1.358       .  S
C1457      C1458   1.404       .  A
C1457      C1462   1.398       .  A
C1457      H1464   1.083       .  S
C1458      C1459   1.407   1_655  A
C1459      C1460   1.391       .  A
C1459      F1466   1.358       .  S
C1460      C1461   1.400       .  A
C1460      H1465   1.084       .  S
C1461      C1462   1.405   1_455  A
C1462      F1463   1.357       .  S
C1467      C1468   1.403       .  A
C1467      C1472   1.403   1_655  A
C1467      H1474   1.083       .  S
C1468      C1469   1.412       .  A
C1469      C1470   1.399       .  A
C1469      F1476   1.358       .  S
C1470      C1471   1.402   1_655  A
C1470      H1475   1.083       .  S
C1471      C1472   1.413       .  A
C1472      F1473   1.358       .  S
C1477      C1478   1.399       .  A
C1477      C1482   1.387       .  A
C1477      H1484   1.084       .  S
C1478      C1479   1.411       .  A
C1479      C1480   1.400       .  A
C1479      F1486   1.358       .  S
C1480      C1481   1.403       .  A
C1480      H1485   1.083       .  S
C1481      C1482   1.411       .  A
C1482      F1483   1.358       .  S
C1487      C1488   1.406       .  A
C1487      C1492   1.396       .  A
C1487      H1494   1.083       .  S
C1488      C1489   1.405       .  A
C1489      C1490   1.393       .  A
C1489      F1496   1.358       .  S
C1490      C1491   1.405       .  A
C1490      H1495   1.083       .  S
C1491      C1492   1.406       .  A
C1492      F1493   1.358       .  S
C1497      C1498   1.405       .  A
C1497      C1502   1.402       .  A
C1497      H1504   1.083       .  S
C1498      C1499   1.411       .  A
C1499      C1500   1.404       .  A
C1499      F1506   1.357       .  S
C1500      C1501   1.405       .  A
C1500      H1505   1.083       .  S
C1501      C1502   1.410       .  A
C1502      F1503   1.358       .  S
C1507      C1508   1.405       .  A
C1507      C1512   1.403       .  A
C1507      H1514   1.083       .  S
C1508      C1509   1.407       .  A
C1509      C1510   1.389       .  A
C1509      F1516   1.358       .  S
C1510      C1511   1.400       .  A
C1510      H1515   1.084       .  S
C1511      C1512   1.408       .  A
C1512      F1513   1.358       .  S
C1517      C1518   1.406       .  A
C1517      C1522   1.399       .  A
C1517      H1524   1.083       .  S
C1518      C1519   1.407       .  A
C1519      C1520   1.407       .  A
C1519      F1526   1.357       .  S
C1520      C1521   1.410       .  A
C1520      H1525   1.083       .  S
C1521      C1522   1.406       .  A
C1522      F1523   1.358   1_556  S
C1527      C1528   1.404       .  A
C1527      C1532   1.395       .  A
C1527      H1534   1.083       .  S
C1528      C1529   1.409       .  A
C1529      C1530   1.402       .  A
C1529      F1536   1.357       .  S
C1530      C1531   1.408       .  A
C1530      H1535   1.083       .  S
C1531      C1532   1.409       .  A
C1532      F1533   1.358       .  S
C1537      C1538   1.403       .  A
C1537      C1542   1.396       .  A
C1537      H1544   1.083       .  S
C1538      C1539   1.409       .  A
C1539      C1540   1.400       .  A
C1539      F1546   1.357       .  S
C1540      C1541   1.406       .  A
C1540      H1545   1.083       .  S
C1541      C1542   1.412       .  A
C1542      F1543   1.358       .  S
C1547      C1548   1.407       .  A
C1547      C1552   1.392       .  A
C1547      H1554   1.083       .  S
C1548      C1549   1.405       .  A
C1549      C1550   1.390   1_554  A
C1549      F1556   1.358       .  S
C1550      C1551   1.407       .  A
C1550      H1555   1.083       .  S
C1551      C1552   1.405   1_556  A
C1552      F1553   1.358       .  S
C1557      C1558   1.408       .  A
C1557      C1562   1.405       .  A
C1557      H1564   1.083       .  S
C1558      C1559   1.406       .  A
C1559      C1560   1.401       .  A
C1559      F1566   1.358   1_554  S
C1560      C1561   1.411       .  A
C1560      H1565   1.083       .  S
C1561      C1562   1.410       .  A
C1562      F1563   1.357       .  S
C1567      C1568   1.404       .  A
C1567      C1572   1.398       .  A
C1567      H1574   1.083       .  S
C1568      C1569   1.411       .  A
C1569      C1570   1.403       .  A
C1569      F1576   1.357       .  S
C1570      C1571   1.403       .  A
C1570      H1575   1.083       .  S
C1571      C1572   1.408       .  A
C1572      F1573   1.358       .  S
C1577      C1578   1.406       .  A
C1577      C1582   1.398       .  A
C1577      H1584   1.083       .  S
C1578      C1579   1.405       .  A
C1579      C1580   1.394       .  A
C1579      F1586   1.358       .  S
C1580      C1581   1.407       .  A
C1580      H1585   1.083       .  S
C1581      C1582   1.407       .  A
C1582      F1583   1.358       .  S
C1587      C1588   1.408       .  A
C1587      C1592   1.400       .  A
C1587      H1594   1.083       .  S
C1588      C1589   1.410       .  A
C1589      C1590   1.400       .  A
C1589      F1596   1.357       .  S
C1590      C1591   1.406       .  A
C1590      H1595   1.083       .  S
C1591      C1592   1.408       .  A
C1592      F1593   1.358       .  S
C1597      C1598   1.408       .  A
C1597      C1602   1.393       .  A
C1597      H1604   1.083       .  S
C1598      C1599   1.405       .  A
C1599      C1600   1.392       .  A
C1599      F1606   1.357       .  S
C1600      C1601   1.407       .  A
C1600      H1605   1.083       .  S
C1601      C1602   1.405       .  A
C1602      F1603   1.358       .  S
C1607      C1608   1.405       .  A
C1607      C1612   1.402       .  A
C1607      H1614   1.084       .  S
C1608      C1609   1.403       .  A
C1609      C1610   1.402       .  A
C1609      F1616   1.358       .  S
C1610      C1611   1.409       .  A
C1610      H1615   1.084       .  S
C1611      C1612   1.406       .  A
C1612      F1613   1.357       .  S
C1617      C1618   1.403       .  A
C1617      C1622   1.399       .  A
C1617      H1624   1.083       .  S
C1618      C1619   1.409       .  A
C1619      C1620   1.403       .  A
C1619      F1626   1.357       .  S
C1620      C1621   1.404       .  A
C1620      H1625   1.083       .  S
C1621      C1622   1.410       .  A
C1622      F1623   1.358       .  S
C1627      C1628   1.409       .  A
C1627      C1632   1.395       .  A
C1627      H1634   1.084       .  S
C1628      C1629   1.397       .  A
C1629      C1630   1.393       .  A
C1629      F1636   1.357       .  S
C1630      C1631   1.407       .  A
C1630      H1635   1.084       .  S
C1631      C1632   1.397       .  A
C1632      F1633   1.358       .  S
C1637      C1638   1.406       .  A
C1637      C1642   1.398       .  A
C1637      H1644   1.083       .  S
C1638      C1639   1.411       .  A
C1639      C1640   1.400       .  A
C1639      F1646   1.357       .  S
C1640      C1641   1.406       .  A
C1640      H1645   1.083       .  S
C1641      C1642   1.410       .  A
C1642      F1643   1.357       .  S
C1647      C1648   1.407       .  A
C1647      C1652   1.393       .  A
C1647      H1654   1.083       .  S
C1648      C1649   1.402       .  A
C1649      C1650   1.391       .  A
C1649      F1656   1.358       .  S
C1650      C1651   1.407       .  A
C1650      H1655   1.083       .  S
C1651      C1652   1.404       .  A
C1652      F1653   1.358       .  S
C1657      C1658   1.405       .  A
C1657      C1662   1.406       .  A
C1657      H1664   1.083       .  S
C1658      C1659   1.407       .  A
C1659      C1660   1.400       .  A
C1659      F1666   1.358       .  S
C1660      C1661   1.408       .  A
C1660      H1665   1.083       .  S
C1661      C1662   1.413       .  A
C1662      F1663   1.357       .  S
C1667      C1668   1.402       .  A
C1667      C1672   1.400       .  A
C1667      H1674   1.083       .  S
C1668      C1669   1.408       .  A
C1669      C1670   1.402       .  A
C1669      F1676   1.358       .  S
C1670      C1671   1.404       .  A
C1670      H1675   1.083       .  S
C1671      C1672   1.410       .  A
C1672      F1673   1.358       .  S
C1677      C1678   1.410       .  A
C1677      C1682   1.394       .  A
C1677      H1684   1.084       .  S
C1678      C1679   1.398       .  A
C1679      C1680   1.394       .  A
C1679      F1686   1.357       .  S
C1680      C1681   1.408       .  A
C1680      H1685   1.084       .  S
C1681      C1682   1.396       .  A
C1682      F1683   1.357       .  S
C1687      C1688   1.406       .  A
C1687      C1692   1.397       .  A
C1687      H1694   1.083       .  S
C1688      C1689   1.410       .  A
C1689      C1690   1.395       .  A
C1689      F1696   1.358       .  S
C1690      C1691   1.405       .  A
C1690      H1695   1.083       .  S
C1691      C1692   1.409       .  A
C1692      F1693   1.357       .  S
