geometry optimzed in LAMMPS
_audit_creation_date              2020-12-01 
_audit_creation_method            'lammps2cif' 
_symmetry_space_group_name_H-M    'P1' 
_symmetry_Int_Tables_number       1 
_symmetry_cell_setting            triclinic 
loop_ 
_symmetry_equiv_pos_as_xyz 
  x,y,z 
_cell_length_a                    36.61788788 
_cell_length_b                    32.50906386549281 
_cell_length_c                    78.23477690350525 
_cell_angle_alpha                 90.71008520013693 
_cell_angle_beta                  89.9465006681103 
_cell_angle_gamma                 90.08133500614285 
loop_ 
_atom_site_label 
_atom_site_type_symbol 
_atom_site_fract_x 
_atom_site_fract_y 
_atom_site_fract_z 
_atom_site_charge 
O1          O  0.88869584  0.18458194  0.47550641    -0.82500
C2          C  0.02203329  0.18382918  0.43897501     0.96800
O3          O  0.99653082  0.15795537  0.43698381    -0.71700
O4          O  0.98183461  0.12884930  0.46725363    -0.75300
Al5        Al  0.95227195  0.15077709  0.44987636     1.49000
C6          C  0.97379619  0.12900762  0.48294112     0.92100
O7          O  0.97914784  0.23139756  0.48851442    -0.81500
O8          O  0.92536744  0.27110417  0.44908601    -0.75000
Al9        Al  0.93500048  0.20818860  0.48060456     1.90100
O10         O  0.98958512  0.27267670  0.46719464    -0.74100
O11         O  0.95275083  0.22404310  0.42575053    -0.74000
O12         O  0.01566334  0.21884480  0.44530570    -0.79600
O13         O  0.92225967  0.16780982  0.43158221    -0.77800
O14         O  0.95211720  0.20066522  0.45948428    -1.13900
O15         O  0.90901405  0.13140626  0.46095368    -0.73100
C16         C  0.88488613  0.14790890  0.47030423     0.97600
C17         C  0.99577847  0.26166314  0.48235593     0.94000
Al18       Al  0.96945468  0.24308396  0.44780185     1.55600
O19         O  0.95299338  0.15651445  0.48917290    -0.77800
C20         C  0.92880546  0.19749535  0.42179734     0.98100
C21         C  0.90834286  0.28108971  0.46242852     0.93000
O22         O  0.91340329  0.26194430  0.47627194    -0.83100
O23         O  0.85588227  0.17050507  0.27630986    -0.82500
C24         C  0.73096712  0.15023143  0.31784901     0.96800
O25         O  0.75962181  0.12854952  0.31867687    -0.71700
O26         O  0.77535627  0.09924552  0.28838316    -0.75300
Al27       Al  0.80306088  0.12813511  0.30481037     1.49000
C28         C  0.77959817  0.10048260  0.27243884     0.92100
O29         O  0.75835068  0.20158062  0.26806897    -0.81500
O30         O  0.81615614  0.25045915  0.30547927    -0.75000
Al31       Al  0.80647297  0.18600921  0.27372869     1.90100
O32         O  0.74955980  0.24406330  0.28955446    -0.74100
O33         O  0.79606389  0.20096124  0.32988355    -0.74000
O34         O  0.73212242  0.18619295  0.31192036    -0.79600
O35         O  0.83223976  0.15041222  0.32235521    -0.77800
O36         O  0.79500720  0.17690867  0.29550412    -1.13900
O37         O  0.84722826  0.11688256  0.29260086    -0.73100
C38         C  0.86639185  0.13646070  0.28202581     0.97600
C39         C  0.74156276  0.23146905  0.27465157     0.94000
Al40       Al  0.77510296  0.21709765  0.30815538     1.55600
O41         O  0.79365719  0.13172550  0.26550517    -0.77800
C42         C  0.82180074  0.17647722  0.33328823     0.98100
C43         C  0.82956757  0.26184923  0.29148316     0.93000
O44         O  0.82247605  0.24262068  0.27764127    -0.83100
O45         O  0.57685391  0.77611811  0.02237520    -0.82500
C46         C  0.48031890  0.85651995  0.06573163     0.96800
O47         O  0.48300691  0.82202734  0.05827434    -0.71700
O48         O  0.50304424  0.76938180  0.03383375    -0.75300
Al49       Al  0.52750963  0.79428405  0.05349768     1.49000
C50         C  0.49589075  0.78266108  0.01904169     0.92100
O51         O  0.54333925  0.88750960  0.01423197    -0.81500
O52         O  0.59217214  0.90345749  0.04100521    -0.75000
Al53       Al  0.55872809  0.83238646  0.02050807     1.90100
O54         O  0.51840719  0.91119127  0.03793892    -0.74100
O55         O  0.58171786  0.86341960  0.06954317    -0.74000
O56         O  0.50823213  0.87886445  0.06780018    -0.79600
O57         O  0.54880346  0.80914268  0.07572891    -0.77800
O58         O  0.54560199  0.83710333  0.04236728    -1.13900
O59         O  0.56949463  0.76268846  0.04961794    -0.73100
C60         C  0.58204496  0.75295360  0.03511879     0.97600
C61         C  0.52448663  0.91434032  0.02217870     0.94000
Al62       Al  0.54994789  0.88507693  0.05322743     1.55600
O63         O  0.51186652  0.81412547  0.01350943    -0.77800
C64         C  0.57342405  0.83515175  0.07971748     0.98100
C65         C  0.61381289  0.88645634  0.03054048     0.93000
O66         O  0.60711557  0.85091995  0.02465929    -0.83100
O67         O  0.66516316  0.76230041  0.22480084    -0.82500
C68         C  0.77170646  0.83140528  0.18157502     0.96800
O69         O  0.75766335  0.79624574  0.17936984    -0.71700
O70         O  0.76373222  0.75341015  0.20728139    -0.75300
Al71       Al  0.72338345  0.76675644  0.19305034     1.49000
C72         C  0.76288820  0.74791144  0.22320564     0.92100
O73         O  0.73588277  0.84646838  0.23468494    -0.81500
O74         O  0.65405253  0.86608633  0.20334031    -0.75000
Al75       Al  0.70111051  0.80454204  0.22821672     1.90100
O76         O  0.72039123  0.89068597  0.21512800    -0.74100
O77         O  0.68662628  0.83975764  0.17464126    -0.74000
O78         O  0.75371466  0.85982925  0.18874254    -0.79600
O79         O  0.68456660  0.77295706  0.17695940    -0.77800
O80         O  0.70940250  0.81014667  0.20582903    -1.13900
O81         O  0.69335762  0.72822299  0.20430852    -0.73100
C82         C  0.66968173  0.72985118  0.21598946     0.97600
C83         C  0.73536295  0.88293256  0.22917798     0.94000
Al84       Al  0.70421039  0.85952818  0.19614884     1.55600
O85         O  0.73816113  0.76441408  0.23216607    -0.77800
C86         C  0.67588162  0.80518755  0.16916637     0.98100
C87         C  0.64431393  0.86440525  0.21887859     0.93000
O88         O  0.66239899  0.84315359  0.22927457    -0.83100
O89         O  0.35337460  0.17516918  0.77508827    -0.82500
C90         C  0.22522796  0.15381683  0.81384158     0.96800
O91         O  0.25460974  0.13422566  0.81609656    -0.71700
O92         O  0.27240865  0.10235968  0.78658341    -0.75300
Al93       Al  0.29863070  0.13376049  0.80271985     1.49000
C94         C  0.27945136  0.10083902  0.77083740     0.92100
O95         O  0.25570593  0.19978255  0.76288315    -0.81500
O96         O  0.30625320  0.25777103  0.80034060    -0.75000
Al97       Al  0.30370717  0.18711041  0.77045442     1.90100
O98         O  0.24255058  0.24368299  0.78338706    -0.74100
O99         O  0.28671518  0.20966858  0.82539736    -0.74000
O100        O  0.22541396  0.18851316  0.80678657    -0.79600
O101        O  0.32588234  0.16011447  0.82014286    -0.77800
O102        O  0.28989737  0.18076708  0.79205563    -1.13900
O103        O  0.34378713  0.12166740  0.79114534    -0.73100
C104        C  0.36363821  0.14092837  0.78069754     0.97600
C105        C  0.23775466  0.23028696  0.76830945     0.94000
Al106      Al  0.26699445  0.22141855  0.80311991     1.55600
O107        O  0.29425073  0.13110080  0.76349850    -0.77800
C108        C  0.31366064  0.18803797  0.82990244     0.98100
C109        C  0.31958314  0.26763228  0.78610268     0.93000
O110        O  0.31644314  0.24419656  0.77313119    -0.83100
O111        O  0.40286000  0.17736058  0.97431441    -0.82500
C112        C  0.52105881  0.17736865  0.92822666     0.96800
O113        O  0.49462842  0.15254020  0.92761898    -0.71700
O114        O  0.49357633  0.12496664  0.95867451    -0.75300
Al115      Al  0.45691034  0.14473255  0.94412114     1.49000
C116        C  0.49067413  0.12434535  0.97468164     0.92100
O117        O  0.49595217  0.22819867  0.97998669    -0.81500
O118        O  0.42733702  0.26632433  0.94544711    -0.75000
Al119      Al  0.44997241  0.20228521  0.97560304     1.90100
O120        O  0.49714496  0.26749424  0.95745982    -0.74100
O121        O  0.44620523  0.21649753  0.91984520    -0.74000
O122        O  0.51643890  0.21318245  0.93418966    -0.79600
O123        O  0.42045614  0.15939927  0.92860631    -0.77800
O124        O  0.45889206  0.19501612  0.95336355    -1.13900
O125        O  0.41876567  0.12436059  0.95846096    -0.73100
C126        C  0.39720876  0.14102086  0.96904247     0.97600
C127        C  0.50819426  0.25933479  0.97233761     0.94000
Al128      Al  0.47076769  0.23734911  0.94021613     1.55600
O129        O  0.47163060  0.15097178  0.98259159    -0.77800
C130        C  0.42401830  0.18692704  0.91756762     0.98100
C131        C  0.41726740  0.27616430  0.96040551     0.93000
O132        O  0.42653709  0.25472203  0.97308455    -0.83100
O133        O  0.16936530  0.74937834  0.72356898    -0.82500
C134        C  0.26791586  0.83103478  0.68344331     0.96800
O135        O  0.25955216  0.79484060  0.68732878    -0.71700
O136        O  0.23790457  0.74006005  0.70900647    -0.75300
Al137      Al  0.21328200  0.77339051  0.69216068     1.49000
C138        C  0.24952204  0.74815447  0.72396918     0.92100
O139        O  0.21016077  0.85330379  0.73818629    -0.81500
O140        O  0.16147493  0.88270855  0.71358931    -0.75000
Al141      Al  0.19128014  0.80268639  0.72825021     1.90100
O142        O  0.23685294  0.88191177  0.71640152    -0.74100
O143        O  0.16918438  0.85603108  0.68205679    -0.74000
O144        O  0.24466283  0.85972510  0.68476471    -0.79600
O145        O  0.19115314  0.79773728  0.67226291    -0.77800
O146        O  0.20247378  0.81403451  0.70663279    -1.13900
O147        O  0.16811567  0.74759662  0.69559597    -0.73100
C148        C  0.15797239  0.73350850  0.70971334     0.97600
C149        C  0.23049092  0.88106869  0.73215404     0.94000
Al150      Al  0.20292129  0.86578516  0.69969984     1.55600
O151        O  0.23730647  0.77873455  0.73225107    -0.77800
C152        C  0.17076445  0.82881051  0.67053566     0.98100
C153        C  0.13848892  0.86277684  0.72241887     0.93000
O154        O  0.14434443  0.82570120  0.72616347    -0.83100
O155        O  0.07240920  0.77356114  0.52396261    -0.82500
C156        C  0.96980957  0.84840005  0.56578162     0.96800
O157        O  0.97564181  0.81399558  0.55877182    -0.71700
O158        O  0.99857380  0.76617040  0.53416165    -0.75300
Al159      Al  0.02071603  0.78881665  0.55426421     1.49000
C160        C  0.99192276  0.78026883  0.51951666     0.92100
O161        O  0.04148485  0.88372978  0.51620904    -0.81500
O162        O  0.08646616  0.89812850  0.54546527    -0.75000
Al163      Al  0.05475023  0.82925006  0.52259468     1.90100
O164        O  0.01430070  0.91002501  0.53871962    -0.74100
O165        O  0.06848377  0.85904495  0.57380638    -0.74000
O166        O  0.99529296  0.87450884  0.56742555    -0.79600
O167        O  0.03886903  0.80100784  0.57664513    -0.77800
O168        O  0.03881621  0.83320605  0.54415258    -1.13900
O169        O  0.06370733  0.75850145  0.55084776    -0.73100
C170        C  0.07775260  0.75029216  0.53652701     0.97600
C171        C  0.02351904  0.91239845  0.52323150     0.94000
Al172      Al  0.04104318  0.88112615  0.55551598     1.55600
O173        O  0.00858056  0.81160819  0.51422268    -0.77800
C174        C  0.06130673  0.82729989  0.58227044     0.98100
C175        C  0.10894147  0.88160206  0.53516734     0.93000
O176        O  0.10230222  0.84684364  0.52850537    -0.83100
O177        O  0.17870209  0.01597677  0.03017135    -0.82500
C178        C  0.27293238  0.91952517  0.06725202     0.96800
O179        O  0.27159923  0.95615999  0.06212691    -0.71700
O180        O  0.25286206  0.01730896  0.04222542    -0.75300
Al181      Al  0.22811602  0.98697994  0.05952347     1.49000
C182        C  0.26008861  0.01068183  0.02666752     0.92100
O183        O  0.21183647  0.90925721  0.01450769    -0.81500
O184        O  0.15947680  0.88597781  0.04017514    -0.75000
Al185      Al  0.19661613  0.96159931  0.02429160     1.90100
O186        O  0.23231038  0.87570925  0.03674343    -0.74100
O187        O  0.17080976  0.91688261  0.07144688    -0.74000
O188        O  0.24413149  0.89816330  0.06816574    -0.79600
O189        O  0.20723030  0.96647883  0.08020214    -0.77800
O190        O  0.20874563  0.94910760  0.04568838    -1.13900
O191        O  0.18673912  0.02063689  0.05804291    -0.73100
C192        C  0.17278586  0.03375848  0.04444783     0.97600
C193        C  0.22790649  0.87843224  0.02084269     0.94000
Al194      Al  0.20202831  0.89854166  0.05353202     1.55600
O195        O  0.24384050  0.98225789  0.01862925    -0.77800
C196        C  0.18041061  0.94280899  0.08273054     0.98100
C197        C  0.13926591  0.90637792  0.03036083     0.93000
O198        O  0.14774742  0.94276799  0.02662868    -0.83100
O199        O  0.09122589  0.97561511  0.22451964    -0.82500
C200        C  0.97808166  0.90270285  0.18497006     0.96800
O201        O  0.99247197  0.93735672  0.18240553    -0.71700
O202        O  0.99091803  0.98527126  0.20946563    -0.75300
Al203      Al  0.02902692  0.96766353  0.19464377     1.49000
C204        C  0.99402418  0.99412773  0.22513508     0.92100
O205        O  0.01921746  0.89752997  0.23900526    -0.81500
O206        O  0.09574572  0.86751658  0.20604549    -0.75000
Al207      Al  0.05433751  0.93632811  0.23019147     1.90100
O208        O  0.02985828  0.85011487  0.21956132    -0.74100
O209        O  0.06161881  0.88926219  0.17756817    -0.74000
O210        O  0.99535867  0.87541988  0.19293073    -0.79600
O211        O  0.06571527  0.95629572  0.17788210    -0.77800
O212        O  0.04294307  0.92645138  0.20818459    -1.13900
O213        O  0.06126432  0.00710365  0.20421486    -0.73100
C214        C  0.08630784  0.00659957  0.21522116     0.97600
C215        C  0.01781964  0.86035667  0.23402184     0.94000
Al216      Al  0.04534711  0.87523282  0.19967612     1.55600
O217        O  0.01942101  0.97885632  0.23385912    -0.77800
C218        C  0.07252181  0.92201160  0.17086834     0.98100
C219        C  0.10704211  0.87148395  0.22127984     0.93000
O220        O  0.09143510  0.89607757  0.23147900    -0.83100
O221        O  0.90403758  0.57635347  0.27390735    -0.82500
C222        C  0.02170040  0.58839600  0.32025225     0.96800
O223        O  0.99330572  0.61053880  0.32110684    -0.71700
O224        O  0.98195438  0.64328903  0.29143940    -0.75300
Al225      Al  0.95175550  0.61291710  0.30604267     1.49000
C226        C  0.98148976  0.64283083  0.27538289     0.92100
O227        O  0.00145963  0.53935446  0.26819129    -0.81500
O228        O  0.93754321  0.48961726  0.30218371    -0.75000
Al229      Al  0.95310660  0.55821255  0.27299139     1.90100
O230        O  0.00622111  0.49848367  0.28996567    -0.74100
O231        O  0.95343237  0.53638969  0.32868008    -0.74000
O232        O  0.02023508  0.55259671  0.31390486    -0.79600
O233        O  0.91982183  0.58946514  0.32221624    -0.77800
O234        O  0.96073410  0.56482352  0.29547963    -1.13900
O235        O  0.90954452  0.62636618  0.29279751    -0.73100
C236        C  0.89260685  0.60939933  0.28055050     0.97600
C237        C  0.01658162  0.50941855  0.27536290     0.94000
Al238      Al  0.97785376  0.52297953  0.30766843     1.55600
O239        O  0.96936101  0.61203856  0.26713343    -0.77800
C240        C  0.92775469  0.56080968  0.33219594     0.98100
C241        C  0.92689674  0.48020739  0.28728981     0.93000
O242        O  0.93460410  0.50276228  0.27467857    -0.83100
O243        O  0.83864767  0.59743664  0.47787644    -0.82500
C244        C  0.72694267  0.61034018  0.42959767     0.96800
O245        O  0.75569337  0.63178167  0.42938575    -0.71700
O246        O  0.75724598  0.66260314  0.46021715    -0.75300
Al247      Al  0.79260881  0.63583497  0.44665472     1.49000
C248        C  0.75901727  0.66508116  0.47625172     0.92100
O249        O  0.74046935  0.56288815  0.48182874    -0.81500
O250        O  0.80877477  0.51225827  0.44914054    -0.75000
Al251      Al  0.78928312  0.58090910  0.47845227     1.90100
O252        O  0.73824820  0.52099715  0.45963367    -0.74100
O253        O  0.79738908  0.56081077  0.42286897    -0.74000
O254        O  0.72736671  0.57466030  0.43568661    -0.79600
O255        O  0.82877349  0.61411518  0.43209533    -0.77800
O256        O  0.78373483  0.58728609  0.45602935    -1.13900
O257        O  0.83107824  0.65168345  0.46199288    -0.73100
C258        C  0.84891251  0.63251233  0.47316228     0.97600
C259        C  0.72666693  0.53218872  0.47419093     0.94000
Al260      Al  0.76910886  0.54556115  0.44281392     1.55600
O261        O  0.77356679  0.63641046  0.48476223    -0.77800
C262        C  0.82323793  0.58635610  0.42102341     0.98100
C263        C  0.81603360  0.50207318  0.46428435     0.93000
O264        O  0.80654953  0.52480352  0.47680021    -0.83100
O265        O  0.57411821  0.98964742  0.72632998    -0.82500
C266        C  0.47090019  0.90937031  0.68802745     0.96800
O267        O  0.47892545  0.94467145  0.69357251    -0.71700
O268        O  0.50383734  0.99812902  0.71588650    -0.75300
Al269      Al  0.52504895  0.96724174  0.69667025     1.49000
C270        C  0.49538233  0.98659607  0.73085360     0.92100
O271        O  0.54170349  0.88217707  0.73924842    -0.81500
O272        O  0.58450592  0.85812106  0.71220662    -0.75000
Al273      Al  0.55573936  0.93483285  0.73024645     1.90100
O274        O  0.51034685  0.85500922  0.71821891    -0.74100
O275        O  0.56943670  0.88832479  0.68175375    -0.74000
O276        O  0.49477051  0.88104632  0.68753794    -0.79600
O277        O  0.54252647  0.94607113  0.67504370    -0.77800
O278        O  0.54016087  0.92543336  0.70905157    -1.13900
O279        O  0.57012160  0.99353751  0.69847263    -0.73100
C280        C  0.58251790  0.00671516  0.71243778     0.97600
C281        C  0.52180825  0.85358969  0.73333748     0.94000
Al282      Al  0.53987506  0.87471147  0.70048664     1.55600
O283        O  0.50981468  0.95498909  0.73713765    -0.77800
C284        C  0.56376393  0.91665490  0.67129072     0.98100
C285        C  0.60812799  0.87792258  0.72098121     0.93000
O286        O  0.60285470  0.91514628  0.72500984    -0.83100
O287        O  0.67252749  0.01165755  0.52976090    -0.82500
C288        C  0.77142309  0.93788309  0.57196886     0.96800
O289        O  0.76444996  0.97292961  0.56613245    -0.71700
O290        O  0.74077874  0.02509900  0.54349909    -0.75300
Al291      Al  0.71800302  0.99401937  0.56140190     1.49000
C292        C  0.75178243  0.01579632  0.52859945     0.92100
O293        O  0.71563222  0.90518764  0.51864287    -0.81500
O294        O  0.66547312  0.88029003  0.54347792    -0.75000
Al295      Al  0.69565637  0.95793564  0.52653240     1.90100
O296        O  0.74066559  0.88087661  0.54183357    -0.74100
O297        O  0.67083945  0.91595109  0.57410371    -0.74000
O298        O  0.74670970  0.91054087  0.57267578    -0.79600
O299        O  0.69734972  0.97348782  0.58216964    -0.77800
O300        O  0.70653905  0.95091391  0.54841644    -1.13900
O301        O  0.67264331  0.01861519  0.55771731    -0.73100
C302        C  0.66143780  0.02966555  0.54329510     0.97600
C303        C  0.73505614  0.87835156  0.52601523     0.94000
Al304      Al  0.70584244  0.90100767  0.55739785     1.55600
O305        O  0.74154215  0.98258068  0.52153439    -0.77800
C306        C  0.67421831  0.94529393  0.58464915     0.98100
C307        C  0.64335838  0.89814103  0.53353261     0.93000
O308        O  0.64894339  0.93482860  0.52922229    -0.83100
O309        O  0.39377349  0.58452740  0.77591926    -0.82500
C310        C  0.51704235  0.58289812  0.81913431     0.96800
O311        O  0.49362384  0.61150468  0.81883433    -0.71700
O312        O  0.48723198  0.63563548  0.78748694    -0.75300
Al313      Al  0.45268114  0.61961879  0.80377937     1.49000
C314        C  0.48183698  0.63435525  0.77163053     0.92100
O315        O  0.48379380  0.52991211  0.76940567    -0.81500
O316        O  0.41515084  0.50346685  0.80657660    -0.75000
Al317      Al  0.43944040  0.55787699  0.77405994     1.90100
O318        O  0.48324896  0.49202604  0.79236608    -0.74100
O319        O  0.44143207  0.55205307  0.83021091    -0.74000
O320        O  0.50876231  0.54711351  0.81411283    -0.79600
O321        O  0.41816200  0.60959134  0.82094399    -0.77800
O322        O  0.45114321  0.56825634  0.79583012    -1.13900
O323        O  0.41258196  0.63906066  0.79024489    -0.73100
C324        C  0.38956475  0.62149507  0.78055576     0.97600
C325        C  0.49381339  0.49810717  0.77716746     0.94000
Al326      Al  0.46138612  0.52706295  0.80972484     1.55600
O327        O  0.46162765  0.60679401  0.76507134    -0.77800
C328        C  0.42051606  0.58264946  0.83225644     0.98100
C329        C  0.40330579  0.49111060  0.79233058     0.93000
O330        O  0.41434409  0.50695103  0.77854529    -0.83100
O331        O  0.35685222  0.59523430  0.97281719    -0.82500
C332        C  0.22149595  0.59915938  0.93849333     0.96800
O333        O  0.24748334  0.62436715  0.93605407    -0.71700
O334        O  0.26641664  0.65730034  0.96541031    -0.75300
Al335      Al  0.29365281  0.63123613  0.94813408     1.49000
C336        C  0.27626056  0.65947844  0.98079951     0.92100
O337        O  0.26490384  0.55878394  0.98818520    -0.81500
O338        O  0.31622617  0.51082823  0.94847671    -0.75000
Al339      Al  0.30994928  0.57708448  0.97931491     1.90100
O340        O  0.25385381  0.51358343  0.96785272    -0.74100
O341        O  0.28737064  0.55516226  0.92512992    -0.74000
O342        O  0.22725114  0.56536632  0.94568966    -0.79600
O343        O  0.32132079  0.60988473  0.92965889    -0.77800
O344        O  0.29203281  0.58284219  0.95841745    -1.13900
O345        O  0.33938491  0.64944500  0.95866511    -0.73100
C346        C  0.36293685  0.63125051  0.96776182     0.97600
C347        C  0.24873712  0.52692349  0.98292155     0.94000
Al348      Al  0.27264589  0.53978221  0.94766995     1.55600
O349        O  0.29605193  0.63158577  0.98718426    -0.77800
C350        C  0.31191181  0.57979287  0.92032297     0.98100
C351        C  0.33271778  0.50082670  0.96184084     0.93000
O352        O  0.32801341  0.52088774  0.97570633    -0.83100
O353        O  0.67362360  0.50922974  0.02836973    -0.82500
C354        C  0.77602494  0.42795557  0.06769043     0.96800
O355        O  0.76936176  0.46393733  0.06275816    -0.71700
O356        O  0.74524555  0.51936403  0.04144637    -0.75300
Al357      Al  0.72242178  0.48688850  0.05889243     1.49000
C358        C  0.75415556  0.51238561  0.02603770     0.92100
O359        O  0.71479655  0.40635192  0.01376677    -0.81500
O360        O  0.66789996  0.37660010  0.03942776    -0.75000
Al361      Al  0.69577984  0.45641484  0.02338467     1.90100
O362        O  0.74225668  0.37776938  0.03541316    -0.74100
O363        O  0.67699856  0.40591436  0.07055068    -0.74000
O364        O  0.75139711  0.40074132  0.06706879    -0.79600
O365        O  0.70218843  0.46345009  0.07954255    -0.77800
O366        O  0.70895707  0.44605007  0.04496119    -1.13900
O367        O  0.67748497  0.51441423  0.05631304    -0.73100
C368        C  0.66542722  0.52733311  0.04227021     0.97600
C369        C  0.73459538  0.37822187  0.01976245     0.94000
Al370      Al  0.70947593  0.39470535  0.05250059     1.55600
O371        O  0.74107331  0.48178198  0.01807797    -0.77800
C372        C  0.68161302  0.43274929  0.08208284     0.98100
C373        C  0.64464253  0.39413961  0.03005774     0.93000
O374        O  0.64892866  0.43130750  0.02583231    -0.83100
O375        O  0.57669543  0.48341818  0.23002322    -0.82500
C376        C  0.47912464  0.41443320  0.18488786     0.96800
O377        O  0.48550981  0.44817683  0.19234465    -0.71700
O378        O  0.50677980  0.49481967  0.21774536    -0.75300
Al379      Al  0.53069356  0.47132770  0.19796885     1.49000
C380        C  0.49697910  0.47952687  0.23183142     0.92100
O381        O  0.54119182  0.37244460  0.23534094    -0.81500
O382        O  0.59065023  0.35779588  0.20876043    -0.75000
Al383      Al  0.55736403  0.42773636  0.23014984     1.90100
O384        O  0.51564010  0.35163321  0.21147299    -0.74100
O385        O  0.58023221  0.40023891  0.17988579    -0.74000
O386        O  0.50450520  0.38830797  0.18266406    -0.79600
O387        O  0.55148216  0.45849008  0.17602815    -0.77800
O388        O  0.54537721  0.42580298  0.20816813    -1.13900
O389        O  0.57447819  0.49917514  0.20282217    -0.73100
C390        C  0.58569482  0.50634671  0.21774702     0.97600
C391        C  0.52170159  0.34680296  0.22711811     0.94000
Al392      Al  0.54778878  0.37850163  0.19651357     1.55600
O393        O  0.51042223  0.44607702  0.23681621    -0.77800
C394        C  0.57498091  0.43228658  0.17128366     0.98100
C395        C  0.61221934  0.37467952  0.21950342     0.93000
O396        O  0.60519530  0.40979327  0.22561324    -0.83100
O397        O  0.34466364  0.09788583  0.47827444    -0.82500
C398        C  0.22041291  0.09132313  0.43611016     0.96800
O399        O  0.24413658  0.11968450  0.43551587    -0.71700
O400        O  0.25291897  0.14956883  0.46640758    -0.75300
Al401      Al  0.28605895  0.12962804  0.44976797     1.49000
C402        C  0.25919496  0.14990513  0.48223155     0.92100
O403        O  0.25412060  0.04439994  0.48492803    -0.81500
O404        O  0.32263356  0.01357722  0.44800093    -0.75000
Al405      Al  0.29893841  0.07129415  0.48019558     1.90100
O406        O  0.25539090  0.00303957  0.46267220    -0.74100
O407        O  0.29483944  0.05842542  0.42398862    -0.74000
O408        O  0.22885737  0.05587975  0.44107846    -0.79600
O409        O  0.31954679  0.11662094  0.43213074    -0.77800
O410        O  0.28722602  0.07933036  0.45836672    -1.13900
O411        O  0.32682459  0.14987465  0.46258262    -0.73100
C412        C  0.34890898  0.13413225  0.47301921     0.97600
C413        C  0.24408399  0.01158029  0.47756520     0.94000
Al414      Al  0.27629582  0.03635600  0.44499662     1.55600
O415        O  0.27760587  0.12137675  0.48886524    -0.77800
C416        C  0.31627095  0.08806243  0.42124486     0.98100
C417        C  0.33505007  0.00270607  0.46224414     0.93000
O418        O  0.32399054  0.01948625  0.47603253    -0.83100
O419        O  0.40162092  0.07948204  0.27777911    -0.82500
C420        C  0.52377636  0.08563963  0.32152819     0.96800
O421        O  0.49565414  0.10765699  0.32325192    -0.71700
O422        O  0.48809685  0.13843944  0.29290562    -0.75300
Al423      Al  0.45528320  0.11304458  0.30791087     1.49000
C424        C  0.48520169  0.13927078  0.27687621     0.92100
O425        O  0.49587270  0.03494031  0.26898628    -0.81500
O426        O  0.43543677  0.98972308  0.30500029    -0.75000
Al427      Al  0.44947417  0.05791099  0.27527694     1.90100
O428        O  0.50312695  0.99627081  0.29136410    -0.74100
O429        O  0.45361838  0.03783111  0.33081662    -0.74000
O430        O  0.52125165  0.05020412  0.31490231    -0.79600
O431        O  0.42188839  0.09254345  0.32413501    -0.77800
O432        O  0.46037366  0.06418581  0.29747992    -1.13900
O433        O  0.41447522  0.13122751  0.29485351    -0.73100
C434        C  0.39430034  0.11474547  0.28368143     0.97600
C435        C  0.51127331  0.00510640  0.27618291     0.94000
Al436      Al  0.47700873  0.02210597  0.30955986     1.55600
O437        O  0.46819056  0.11120727  0.26874398    -0.77800
C438        C  0.42859494  0.06352753  0.33420259     0.98100
C439        C  0.42235527  0.98103238  0.29046955     0.93000
O440        O  0.42843223  0.00387653  0.27775490    -0.83100
O441        O  0.07856369  0.47999473  0.72328376    -0.82500
C442        C  0.97237778  0.39176419  0.68483579     0.96800
O443        O  0.98034009  0.42928935  0.68298653    -0.71700
O444        O  0.97796749  0.47746074  0.70982313    -0.75300
Al445      Al  0.01558430  0.46459278  0.69390094     1.49000
C446        C  0.98115857  0.48561199  0.72551738     0.92100
O447        O  0.01648230  0.39232354  0.73679313    -0.81500
O448        O  0.09496276  0.37468703  0.70337241    -0.75000
Al449      Al  0.04705721  0.43554397  0.72868187     1.90100
O450        O  0.03243339  0.34603655  0.71756536    -0.74100
O451        O  0.05664688  0.39232902  0.67548088    -0.74000
O452        O  0.99476871  0.36746656  0.69151999    -0.79600
O453        O  0.05000611  0.45903274  0.67564888    -0.77800
O454        O  0.03572198  0.42523751  0.70669521    -1.13900
O455        O  0.04599087  0.50720978  0.70270725    -0.73100
C456        C  0.07124921  0.50981907  0.71366858     0.97600
C457        C  0.01749962  0.35544841  0.73153950     0.94000
Al458      Al  0.04401669  0.37493882  0.69770069     1.55600
O459        O  0.00832072  0.47275066  0.73365253    -0.77800
C460        C  0.06047809  0.42644720  0.66832484     0.98100
C461        C  0.10691312  0.38043166  0.71837491     0.93000
O462        O  0.08880953  0.40112613  0.72913344    -0.83100
O463        O  0.18354838  0.51447759  0.52799850    -0.82500
C464        C  0.27062872  0.42136789  0.56957913     0.96800
O465        O  0.26927637  0.45760041  0.56402188    -0.71700
O466        O  0.25353154  0.51640164  0.54261681    -0.75300
Al467      Al  0.22656499  0.48743011  0.55955957     1.49000
C468        C  0.26363431  0.50810321  0.52755364     0.92100
O469        O  0.21595722  0.40529395  0.51536418    -0.81500
O470        O  0.15882558  0.38686607  0.54021931    -0.75000
Al471      Al  0.20118308  0.45894754  0.52378987     1.90100
O472        O  0.23170473  0.37191142  0.53841381    -0.74100
O473        O  0.16799784  0.41934987  0.57117792    -0.74000
O474        O  0.24231063  0.39880812  0.56958544    -0.79600
O475        O  0.20342829  0.46921318  0.58008377    -0.77800
O476        O  0.20952416  0.44810567  0.54574903    -1.13900
O477        O  0.18524422  0.51992742  0.55609000    -0.73100
C478        C  0.17412606  0.53236456  0.54182162     0.97600
C479        C  0.22881793  0.37350892  0.52239880     0.94000
Al480      Al  0.20078644  0.39851591  0.55423341     1.55600
O481        O  0.24977211  0.47786378  0.51963078    -0.77800
C482        C  0.17606118  0.44628885  0.58228453     0.98100
C483        C  0.14082700  0.40711348  0.52940602     0.93000
O484        O  0.15182269  0.44196714  0.52476077    -0.83100
O485        O  0.88593576  0.07432137  0.77793338    -0.82500
C486        C  0.01838230  0.09089698  0.81429515     0.96800
O487        O  0.99036428  0.11306813  0.81638994    -0.71700
O488        O  0.97373120  0.14036589  0.78625114    -0.75300
Al489      Al  0.94609353  0.11543178  0.80332644     1.49000
C490        C  0.96501793  0.14034310  0.77069059     0.92100
O491        O  0.97995705  0.03943208  0.76446768    -0.81500
O492        O  0.92986330  0.99346862  0.80408194    -0.75000
Al493      Al  0.93396928  0.05696388  0.77256238     1.90100
O494        O  0.99327298  0.99870855  0.78566128    -0.74100
O495        O  0.95379821  0.04326113  0.82738912    -0.74000
O496        O  0.01569948  0.05551880  0.80762485    -0.79600
O497        O  0.91790930  0.09503136  0.82117105    -0.77800
O498        O  0.95046617  0.06608814  0.79364662    -1.13900
O499        O  0.90139975  0.12997090  0.79228116    -0.73100
C500        C  0.87891613  0.11027152  0.78312661     0.97600
C501        C  0.99819237  0.01025879  0.77045321     0.94000
Al502      Al  0.97154740  0.02593366  0.80523972     1.55600
O503        O  0.94680739  0.11085164  0.76419657    -0.77800
C504        C  0.92817334  0.06769501  0.83132521     0.98100
C505        C  0.91335132  0.98204136  0.79078780     0.93000
O506        O  0.91739226  0.00105024  0.77683353    -0.83100
O507        O  0.85207928  0.09448890  0.97408892    -0.82500
C508        C  0.72903201  0.12003148  0.93173001     0.96800
O509        O  0.75755553  0.14184845  0.93192090    -0.71700
O510        O  0.76548499  0.16097449  0.96395925    -0.75300
Al511      Al  0.79785558  0.14063003  0.94758045     1.49000
C512        C  0.77084030  0.15843786  0.97978699     0.92100
O513        O  0.75515148  0.05586771  0.98101072    -0.81500
O514        O  0.81356772  0.01776583  0.94235019    -0.75000
Al515      Al  0.80266872  0.07595470  0.97605008     1.90100
O516        O  0.74636846  0.02217541  0.95697679    -0.74100
O517        O  0.79656808  0.07364185  0.92032983    -0.74000
O518        O  0.73008349  0.08339641  0.93680113    -0.79600
O519        O  0.83068811  0.12426500  0.93035495    -0.77800
O520        O  0.79138880  0.08940694  0.95465823    -1.13900
O521        O  0.83895763  0.15291831  0.96191690    -0.73100
C522        C  0.85961929  0.13160515  0.97115371     0.97600
C523        C  0.73902704  0.02796931  0.97259418     0.94000
Al524      Al  0.77303262  0.05232577  0.94024423     1.55600
O525        O  0.78765599  0.12796836  0.98597017    -0.77800
C526        C  0.82266772  0.09880874  0.91866629     0.98100
C527        C  0.82538526  0.00322247  0.95612132     0.93000
O528        O  0.81969363  0.02142609  0.97028107    -0.83100
O529        O  0.89235508  0.68311944  0.97491259    -0.82500
C530        C  0.02189416  0.68664196  0.93576548     0.96800
O531        O  0.99685326  0.65993375  0.93399975    -0.71700
O532        O  0.98223652  0.62492410  0.96315561    -0.75300
Al533      Al  0.95254109  0.65120558  0.94699338     1.49000
C534        C  0.97537710  0.62305470  0.97888976     0.92100
O535        O  0.98545542  0.72471304  0.98682653    -0.81500
O536        O  0.92535826  0.77135991  0.95036181    -0.75000
Al537      Al  0.93957463  0.70408417  0.97958697     1.90100
O538        O  0.99178875  0.77044861  0.96672220    -0.74100
O539        O  0.95069863  0.72895706  0.92480334    -0.74000
O540        O  0.01525105  0.72108463  0.94255471    -0.79600
O541        O  0.92217651  0.67105005  0.92959896    -0.77800
O542        O  0.95387832  0.69963602  0.95788157    -1.13900
O543        O  0.90891833  0.63181249  0.95813199    -0.73100
C544        C  0.88648483  0.64782333  0.96857756     0.97600
C545        C  0.00037858  0.75680704  0.98125653     0.94000
Al546      Al  0.96948436  0.74415255  0.94699420     1.55600
O547        O  0.95657271  0.65068433  0.98624345    -0.77800
C548        C  0.92792628  0.70168727  0.92031524     0.98100
C549        C  0.91206279  0.78068118  0.96469464     0.93000
O550        O  0.91907317  0.75905009  0.97766020    -0.83100
O551        O  0.84549403  0.66117855  0.77794668    -0.82500
C552        C  0.71938558  0.66459248  0.81950015     0.96800
O553        O  0.74297391  0.63612046  0.81976028    -0.71700
O554        O  0.75542203  0.60343745  0.78984317    -0.75300
Al555      Al  0.78662721  0.62751703  0.80624037     1.49000
C556        C  0.76271813  0.60147518  0.77417669     0.92100
O557        O  0.75105344  0.70161735  0.76919731    -0.81500
O558        O  0.81750775  0.74861136  0.80395813    -0.75000
Al559      Al  0.79787659  0.68179604  0.77459362     1.90100
O560        O  0.74826615  0.74828080  0.78973798    -0.74100
O561        O  0.79505638  0.70492902  0.82983986    -0.74000
O562        O  0.72765130  0.69971001  0.81417361    -0.79600
O563        O  0.81787072  0.64424732  0.82389148    -0.77800
O564        O  0.78609743  0.67681425  0.79656411    -1.13900
O565        O  0.82987551  0.60888848  0.79414351    -0.73100
C566        C  0.85172764  0.62571407  0.78372307     0.97600
C567        C  0.73732874  0.73393600  0.77547968     0.94000
Al568      Al  0.77324487  0.72153472  0.80854344     1.55600
O569        O  0.78154971  0.62903235  0.76726292    -0.77800
C570        C  0.81521148  0.67492300  0.83371308     0.98100
C571        C  0.82671722  0.75858878  0.78907151     0.93000
O572        O  0.81747002  0.73650734  0.77640968    -0.83100
O573        O  0.08485736  0.28137928  0.02810248    -0.82500
C574        C  0.98547026  0.37771782  0.06657101     0.96800
O575        O  0.99082242  0.33963233  0.06865433    -0.71700
O576        O  0.98418866  0.29008326  0.04217708    -0.75300
Al577      Al  0.02336046  0.30092555  0.05770251     1.49000
C578        C  0.98714659  0.27979712  0.02667894     0.92100
O579        O  0.02534347  0.37072666  0.01423447    -0.81500
O580        O  0.10734283  0.38262858  0.04673345    -0.75000
Al581      Al  0.05479141  0.32616046  0.02236973     1.90100
O582        O  0.04668641  0.41658036  0.03249829    -0.74100
O583        O  0.06973623  0.37064845  0.07486803    -0.74000
O584        O  0.00904788  0.39960756  0.05930418    -0.79600
O585        O  0.05873685  0.30483046  0.07560789    -0.77800
O586        O  0.04509773  0.33809370  0.04434943    -1.13900
O587        O  0.05167281  0.25581602  0.04897976    -0.73100
C588        C  0.07725580  0.25244748  0.03813210     0.97600
C589        C  0.02968812  0.40785594  0.01893091     0.94000
Al590      Al  0.05713919  0.38776921  0.05271140     1.55600
O591        O  0.01495685  0.28991615  0.01832942    -0.77800
C592        C  0.07216108  0.33678000  0.08232721     0.98100
C593        C  0.11786727  0.37667307  0.03155325     0.93000
O594        O  0.09769513  0.35841580  0.02087694    -0.83100
O595        O  0.16591769  0.26250236  0.22389529    -0.82500
C596        C  0.27590978  0.33275410  0.18283227     0.96800
O597        O  0.26319119  0.29696068  0.18087323    -0.71700
O598        O  0.26742700  0.25574499  0.20912599    -0.75300
Al599      Al  0.22829921  0.26720419  0.19405563     1.49000
C600        C  0.26472042  0.24946418  0.22493695     0.92100
O601        O  0.23557621  0.34562932  0.23597604    -0.81500
O602        O  0.15715536  0.36671908  0.20334937    -0.75000
Al603      Al  0.20159069  0.30416327  0.22859752     1.90100
O604        O  0.22305935  0.39015019  0.21594628    -0.74100
O605        O  0.19053154  0.33931301  0.17530421    -0.74000
O606        O  0.25687661  0.36053572  0.18975071    -0.79600
O607        O  0.19097497  0.27225837  0.17724059    -0.77800
O608        O  0.21227937  0.31034463  0.20646160    -1.13900
O609        O  0.19799298  0.22792760  0.20481795    -0.73100
C610        C  0.17211003  0.22991792  0.21541498     0.97600
C611        C  0.23620097  0.38199507  0.23036523     0.94000
Al612      Al  0.20742492  0.35964347  0.19675604     1.55600
O613        O  0.23811912  0.26390651  0.23328803    -0.77800
C614        C  0.18122005  0.30436969  0.16963362     0.98100
C615        C  0.14692514  0.36564231  0.21878672     0.93000
O616        O  0.16342441  0.34308259  0.22921576    -0.83100
O617        O  0.35459303  0.66768771  0.27714837    -0.82500
C618        C  0.23004745  0.64737304  0.31905282     0.96800
O619        O  0.25801755  0.62459860  0.31918179    -0.71700
O620        O  0.26907339  0.60039685  0.28769384    -0.75300
Al621      Al  0.29986579  0.62404946  0.30420744     1.49000
C622        C  0.27519190  0.60155761  0.27187005     0.92100
O623        O  0.25837589  0.70555597  0.26890300    -0.81500
O624        O  0.31710605  0.74663863  0.30722468    -0.75000
Al625      Al  0.30567241  0.68581034  0.27450771     1.90100
O626        O  0.24945862  0.74168627  0.29236998    -0.74100
O627        O  0.29878908  0.69454079  0.33047713    -0.74000
O628        O  0.23231812  0.68371577  0.31374946    -0.79600
O629        O  0.33183284  0.64248161  0.32146865    -0.77800
O630        O  0.29372372  0.67446047  0.29610117    -1.13900
O631        O  0.34213677  0.61111823  0.29084201    -0.73100
C632        C  0.36290689  0.63149068  0.28122720     0.97600
C633        C  0.24155904  0.73351441  0.27696596     0.94000
Al634      Al  0.27581313  0.71342565  0.30982399     1.55600
O635        O  0.29099881  0.63244701  0.26536027    -0.77800
C636        C  0.32485564  0.66963609  0.33259935     0.98100
C637        C  0.33026082  0.75935466  0.29340889     0.93000
O638        O  0.32333504  0.74111837  0.27936045    -0.83100
O639        O  0.39805415  0.68483843  0.47634585    -0.82500
C640        C  0.52188398  0.67556056  0.43320943     0.96800
O641        O  0.49321720  0.65431569  0.43155492    -0.71700
O642        O  0.48158481  0.62005377  0.46114899    -0.75300
Al643      Al  0.45164013  0.65011195  0.44621386     1.49000
C644        C  0.47796634  0.61933525  0.47716185     0.92100
O645        O  0.49499685  0.71873308  0.48597786    -0.81500
O646        O  0.43818659  0.77402318  0.45115351    -0.75000
Al647      Al  0.44733543  0.70223807  0.47950176     1.90100
O648        O  0.50497165  0.76270012  0.46557651    -0.74100
O649        O  0.45535618  0.72807629  0.42462316    -0.74000
O650        O  0.52094630  0.71009890  0.44071702    -0.79600
O651        O  0.42074177  0.67467024  0.43017106    -0.77800
O652        O  0.45887760  0.69753669  0.45743012    -1.13900
O653        O  0.40924765  0.63404743  0.45849857    -0.73100
C654        C  0.38947339  0.65039208  0.46986541     0.97600
C655        C  0.51223488  0.74897532  0.48021647     0.94000
Al656      Al  0.47827032  0.74008391  0.44639686     1.55600
O657        O  0.46205471  0.64811201  0.48518003    -0.77800
C658        C  0.42973780  0.70372208  0.42053461     0.98100
C659        C  0.42574439  0.78248079  0.46580364     0.93000
O660        O  0.43042680  0.75822897  0.47815279    -0.83100
O661        O  0.65464755  0.26251425  0.72544391    -0.82500
C662        C  0.76129144  0.34458921  0.68600152     0.96800
O663        O  0.75341550  0.30690104  0.68460622    -0.71700
O664        O  0.75705605  0.26390769  0.71222299    -0.75300
Al665      Al  0.71903722  0.27313429  0.69638302     1.49000
C666        C  0.75293976  0.25471889  0.72766324     0.92100
O667        O  0.71969594  0.34805714  0.73834240    -0.81500
O668        O  0.63912268  0.36286787  0.70550456    -0.75000
Al669      Al  0.68761321  0.30556640  0.73080496     1.90100
O670        O  0.70264677  0.39305681  0.71914632    -0.74100
O671        O  0.67613283  0.34191820  0.67764064    -0.74000
O672        O  0.73900824  0.36955240  0.69262975    -0.79600
O673        O  0.68415413  0.27543831  0.67848577    -0.77800
O674        O  0.69875836  0.31362946  0.70875643    -1.13900
O675        O  0.68918725  0.23201788  0.70600192    -0.73100
C676        C  0.66257430  0.23149436  0.71630838     0.97600
C677        C  0.71814767  0.38459914  0.73306178     0.94000
Al678      Al  0.68997403  0.36246862  0.69942364     1.55600
O679        O  0.72508146  0.26673027  0.73567797    -0.77800
C680        C  0.67223998  0.30668888  0.67103025     0.98100
C681        C  0.62821216  0.36063582  0.72079793     0.93000
O682        O  0.64714281  0.34190646  0.73164325    -0.83100
O683        O  0.57775340  0.28087320  0.52760764    -0.82500
C684        C  0.47884091  0.36974618  0.56973520     0.96800
O685        O  0.48733324  0.33246853  0.57162339    -0.71700
O686        O  0.47842038  0.28546352  0.54480010    -0.75300
Al687      Al  0.51934510  0.29686499  0.55896297     1.49000
C688        C  0.47907859  0.27688173  0.52907852     0.92100
O689        O  0.51338220  0.36806710  0.51562901    -0.81500
O690        O  0.59709430  0.38523794  0.54619449    -0.75000
Al691      Al  0.54513457  0.32501824  0.52300248     1.90100
O692        O  0.53279437  0.41419422  0.53418511    -0.74100
O693        O  0.56421417  0.36850313  0.57517552    -0.74000
O694        O  0.49957772  0.39375332  0.56178081    -0.79600
O695        O  0.55769717  0.30179538  0.57534949    -0.77800
O696        O  0.53737630  0.33581826  0.54527108    -1.13900
O697        O  0.54692619  0.25369823  0.54880900    -0.73100
C698        C  0.57124532  0.25103222  0.53738264     0.97600
C699        C  0.51688081  0.40517694  0.52039073     0.94000
Al700      Al  0.54747104  0.38586508  0.55371885     1.55600
O701        O  0.50565963  0.28782420  0.52000081    -0.77800
C702        C  0.57044773  0.33432531  0.58189457     0.98100
C703        C  0.60522382  0.38242164  0.53053915     0.93000
O704        O  0.58609999  0.36044285  0.52061892    -0.83100
C705        C  0.59246289  0.33368785  0.59773629    -0.06000
C706        C  0.60656528  0.37102584  0.60420823    -0.05900
C707        C  0.62554351  0.37240466  0.61955990    -0.24100
C708        C  0.63090713  0.33648996  0.62882432     0.18100
C709        C  0.61788778  0.29839431  0.62238807     0.15400
C710        C  0.59869228  0.29715761  0.60678939    -0.19100
C711        C  0.62390565  0.26257080  0.63185112    -0.20900
C712        C  0.64196577  0.26479944  0.64764936    -0.13500
C713        C  0.65403325  0.30291605  0.65422732     0.03200
C714        C  0.64872413  0.33845703  0.64457474    -0.25600
H715        H  0.60251262  0.39961294  0.59750892     0.08300
H716        H  0.63560689  0.40176104  0.62430618     0.11900
H717        H  0.58812096  0.26815817  0.60190769     0.11800
H718        H  0.61435717  0.23299137  0.62713093     0.11500
H719        H  0.64599222  0.23689547  0.65482408     0.12100
H720        H  0.65837176  0.36798240  0.64935429     0.14000
C721        C  0.48987026  0.58337342  0.48673319    -0.06000
C722        C  0.49798952  0.58782400  0.50416498    -0.05900
C723        C  0.50394623  0.55338280  0.51410645    -0.24100
C724        C  0.50143255  0.51399352  0.50678140     0.18100
C725        C  0.49399240  0.50900208  0.48917549     0.15400
C726        C  0.48861108  0.54393999  0.47916166    -0.19100
C727        C  0.49150157  0.46918157  0.48205773    -0.20900
C728        C  0.49715114  0.43466825  0.49228068    -0.13500
C729        C  0.50510214  0.43972055  0.50972532     0.03200
C730        C  0.50645418  0.47955817  0.51687632    -0.25600
H731        H  0.49894689  0.61800875  0.51018144     0.08300
H732        H  0.50985625  0.55752333  0.52759103     0.11900
H733        H  0.48178966  0.54041643  0.46573883     0.11800
H734        H  0.48572189  0.46478202  0.46857953     0.11500
H735        H  0.49644287  0.40426870  0.48647358     0.12100
H736        H  0.51243292  0.48401029  0.53035020     0.14000
C737        C  0.34681545  0.67108844  0.34838767    -0.06000
C738        C  0.36325463  0.63482426  0.35413416    -0.05900
C739        C  0.38322347  0.63473223  0.36924966    -0.24100
C740        C  0.38767398  0.67108721  0.37876580     0.18100
C741        C  0.37264028  0.70832201  0.37284052     0.15400
C742        C  0.35180762  0.70801243  0.35771853    -0.19100
C743        C  0.37856885  0.74485916  0.38227167    -0.20900
C744        C  0.39831887  0.74409541  0.39763770    -0.13500
C745        C  0.41158953  0.70667746  0.40385672     0.03200
C746        C  0.40657544  0.67050084  0.39425504    -0.25600
H747        H  0.35993776  0.60614602  0.34710352     0.08300
H748        H  0.39495211  0.60609800  0.37357304     0.11900
H749        H  0.33975601  0.73628083  0.35317047     0.11800
H750        H  0.36765251  0.77381114  0.37786717     0.11500
H751        H  0.40218715  0.77231236  0.40492372     0.12100
H752        H  0.41741045  0.64169991  0.39892930     0.14000
C753        C  0.24919687  0.41702322  0.24084768    -0.06000
C754        C  0.24711220  0.41610239  0.25873716    -0.05900
C755        C  0.25139640  0.45237076  0.26834890    -0.24100
C756        C  0.25774676  0.48996615  0.26017727     0.18100
C757        C  0.26139476  0.49080689  0.24223846     0.15400
C758        C  0.25744193  0.45434703  0.23273850    -0.19100
C759        C  0.26803198  0.52825511  0.23405069    -0.20900
C760        C  0.27124500  0.56471278  0.24358554    -0.13500
C761        C  0.26741926  0.56435159  0.26143331     0.03200
C762        C  0.26045367  0.52673113  0.26962290    -0.25600
H763        H  0.24022437  0.38787030  0.26521079     0.08300
H764        H  0.24871318  0.45122534  0.28212820     0.11900
H765        H  0.25915276  0.45537147  0.21890810     0.11800
H766        H  0.27095227  0.52930455  0.22027868     0.11500
H767        H  0.27719450  0.59308912  0.23702484     0.12100
H768        H  0.25814264  0.52577911  0.28342871     0.14000
C769        C  0.15896966  0.30189866  0.15380327    -0.06000
C770        C  0.14960986  0.26395563  0.14612918    -0.05900
C771        C  0.12975125  0.26261336  0.13078664    -0.24100
C772        C  0.11902690  0.29920614  0.12284254     0.18100
C773        C  0.12782539  0.33732264  0.13071059     0.15400
C774        C  0.14740344  0.33839354  0.14605908    -0.19100
C775        C  0.11749552  0.37405440  0.12299640    -0.20900
C776        C  0.09929590  0.37328648  0.10740212    -0.13500
C777        C  0.09070556  0.33578909  0.09916441     0.03200
C778        C  0.10022858  0.29860491  0.10710022    -0.25600
H779        H  0.15800110  0.23535063  0.15187356     0.08300
H780        H  0.12321270  0.23302739  0.12503407     0.11900
H781        H  0.15410047  0.36793755  0.15183905     0.11800
H782        H  0.12390670  0.40349738  0.12892301     0.11500
H783        H  0.09200879  0.40238761  0.10174970     0.12100
H784        H  0.09369149  0.26948641  0.10092743     0.14000
C785        C  0.73216530  0.41912042  0.74332426    -0.06000
C786        C  0.73419875  0.41693904  0.76118269    -0.05900
C787        C  0.74022738  0.45264320  0.77090891    -0.24100
C788        C  0.74413820  0.49071992  0.76283105     0.18100
C789        C  0.74395634  0.49254040  0.74480456     0.15400
C790        C  0.73847788  0.45672723  0.73521205    -0.19100
C791        C  0.74823600  0.53030007  0.73662549    -0.20900
C792        C  0.75276430  0.56620062  0.74625487    -0.13500
C793        C  0.75271362  0.56482269  0.76417017     0.03200
C794        C  0.74817181  0.52701620  0.77241819    -0.25600
H795        H  0.72924654  0.38816571  0.76762634     0.08300
H796        H  0.74069349  0.45070051  0.78472263     0.11900
H797        H  0.73743187  0.45848241  0.72137999     0.11800
H798        H  0.74822860  0.53203212  0.72280006     0.11500
H799        H  0.75683099  0.59501178  0.73970180     0.12100
H800        H  0.74904063  0.52565204  0.78625430     0.14000
C801        C  0.01618373  0.44268124  0.00877219    -0.06000
C802        C  0.01010702  0.43914973  0.99111233    -0.05900
C803        C  0.00154693  0.47409292  0.98157982    -0.24100
C804        C  0.99875438  0.51290033  0.98962733     0.18100
C805        C  0.00368194  0.51630072  0.00748135     0.15400
C806        C  0.01228917  0.48134469  0.01686875    -0.19100
C807        C  0.00019520  0.55467100  0.01570262    -0.20900
C808        C  0.99166880  0.58956327  0.00632286    -0.13500
C809        C  0.98717794  0.58679881  0.98854976     0.03200
C810        C  0.99093525  0.54834148  0.98022241    -0.25600
H811        H  0.01313890  0.40973297  0.98462387     0.08300
H812        H  0.99757912  0.47087647  0.96790696     0.11900
H813        H  0.01649282  0.48441876  0.03054852     0.11800
H814        H  0.00378489  0.55763334  0.02941087     0.11500
H815        H  0.98853217  0.61878278  0.01296543     0.12100
H816        H  0.98672253  0.54581790  0.96653284     0.14000
C817        C  0.83554099  0.67446871  0.85001202    -0.06000
C818        C  0.84488906  0.63640337  0.85712083    -0.05900
C819        C  0.86457786  0.63456854  0.87229836    -0.24100
C820        C  0.87586574  0.67078690  0.88055744     0.18100
C821        C  0.86717430  0.70940125  0.87349873     0.15400
C822        C  0.84653461  0.71104452  0.85833695    -0.19100
C823        C  0.87959138  0.74547738  0.88169871    -0.20900
C824        C  0.90016290  0.74319339  0.89676599    -0.13500
C825        C  0.90802669  0.70485211  0.90398981     0.03200
C826        C  0.89580047  0.66882652  0.89576737    -0.25600
H827        H  0.83665089  0.60782538  0.85097583     0.08300
H828        H  0.87115233  0.60476493  0.87752680     0.11900
H829        H  0.83976884  0.74051465  0.85284141     0.11800
H830        H  0.87341257  0.77537571  0.87647120     0.11500
H831        H  0.90923566  0.77136028  0.90297559     0.12100
H832        H  0.90207796  0.63908958  0.90116480     0.14000
C833        C  0.84399229  0.96319120  0.95552510    -0.06000
C834        C  0.85810975  0.94848400  0.93991807    -0.05900
C835        C  0.87272046  0.90911917  0.93864538    -0.24100
C836        C  0.87334615  0.88372694  0.95295443     0.18100
C837        C  0.85930179  0.89800723  0.96876136     0.15400
C838        C  0.84473996  0.93786052  0.96997337    -0.19100
C839        C  0.86024764  0.87215343  0.98301515    -0.20900
C840        C  0.87618600  0.83306751  0.98171855    -0.13500
C841        C  0.89086467  0.81918835  0.96609391     0.03200
C842        C  0.88849197  0.84449834  0.95169547    -0.25600
H843        H  0.85757420  0.96737517  0.92860784     0.08300
H844        H  0.88347100  0.89850802  0.92645646     0.11900
H845        H  0.83330829  0.94875768  0.98198637     0.11800
H846        H  0.84941455  0.88248920  0.99522106     0.11500
H847        H  0.87778725  0.81415149  0.99298765     0.12100
H848        H  0.89968687  0.83434941  0.93951954     0.14000
C849        C  0.88896355  0.15275499  0.98061554    -0.06000
C850        C  0.92591348  0.14698980  0.97663542    -0.05900
C851        C  0.95267598  0.17081595  0.98494974    -0.24100
C852        C  0.94270775  0.20025940  0.99745039     0.18100
C853        C  0.90555551  0.20495676  0.00191201     0.15400
C854        C  0.87899954  0.18145913  0.99334500    -0.19100
C855        C  0.89552381  0.23339905  0.01472848    -0.20900
C856        C  0.92205861  0.25747347  0.02295545    -0.13500
C857        C  0.95889458  0.25417270  0.01821946     0.03200
C858        C  0.96908075  0.22529094  0.00548989    -0.25600
H859        H  0.93389724  0.12502165  0.96681071     0.08300
H860        H  0.98108294  0.16657996  0.98147664     0.11900
H861        H  0.85037806  0.18574956  0.99643363     0.11800
H862        H  0.86713247  0.23707523  0.01835979     0.11500
H863        H  0.91373994  0.27924605  0.03279783     0.12100
H864        H  0.99760409  0.22197334  0.00200458     0.14000
C865        C  0.84511653  0.79828377  0.78635308    -0.06000
C866        C  0.85793532  0.80922257  0.77008681    -0.05900
C867        C  0.87200303  0.84857067  0.76726894    -0.24100
C868        C  0.87317747  0.87763636  0.78064924     0.18100
C869        C  0.85996197  0.86682138  0.79699380     0.15400
C870        C  0.84631623  0.82732476  0.79974772    -0.19100
C871        C  0.86083370  0.89555755  0.81042191    -0.20900
C872        C  0.87631921  0.93407926  0.80793436    -0.13500
C873        C  0.89091952  0.94468734  0.79195334     0.03200
C874        C  0.88826722  0.91686019  0.77815890    -0.25600
H875        H  0.85674616  0.78748500  0.75949951     0.08300
H876        H  0.88191081  0.85626204  0.75465039     0.11900
H877        H  0.83590232  0.81954005  0.81228248     0.11800
H878        H  0.85049517  0.88785542  0.82296973     0.11500
H879        H  0.87799287  0.95524745  0.81871799     0.12100
H880        H  0.89979882  0.92478023  0.76585993     0.14000
C881        C  0.91054498  0.06568398  0.84806874    -0.06000
C882        C  0.90505899  0.02799064  0.85621406    -0.05900
C883        C  0.88616025  0.02668468  0.87173097    -0.24100
C884        C  0.87334885  0.06321009  0.87937063     0.18100
C885        C  0.87990171  0.10133139  0.87138097     0.15400
C886        C  0.89797250  0.10219963  0.85570622    -0.19100
C887        C  0.86835688  0.13806288  0.87919297    -0.20900
C888        C  0.85038636  0.13709913  0.89486251    -0.13500
C889        C  0.84294750  0.09941485  0.90263009     0.03200
C890        C  0.85422076  0.06245956  0.89486292    -0.25600
H891        H  0.91454054  0.99958205  0.85035662     0.08300
H892        H  0.88156509  0.99726532  0.87773499     0.11900
H893        H  0.90259043  0.13140593  0.84949105     0.11800
H894        H  0.87333881  0.16745433  0.87322556     0.11500
H895        H  0.84152126  0.16571808  0.90076378     0.12100
H896        H  0.84860054  0.03340625  0.90101799     0.14000
C897        C  0.84828890  0.13262434  0.77566719    -0.06000
C898        C  0.82183207  0.15220167  0.78583132    -0.05900
C899        C  0.79685293  0.17930475  0.77841457    -0.24100
C900        C  0.79930462  0.18850051  0.76092718     0.18100
C901        C  0.82632326  0.16904833  0.75077599     0.15400
C902        C  0.84997873  0.14059472  0.75813102    -0.19100
C903        C  0.83009892  0.17926657  0.73353501    -0.20900
C904        C  0.80706866  0.20830765  0.72627557    -0.13500
C905        C  0.77952001  0.22734457  0.73605118     0.03200
C906        C  0.77577997  0.21726285  0.75344558    -0.25600
H907        H  0.82097831  0.14707104  0.79947852     0.08300
H908        H  0.77650423  0.19412819  0.78643425     0.11900
H909        H  0.87132842  0.12651567  0.75041806     0.11800
H910        H  0.85094498  0.16485413  0.72566114     0.11500
H911        H  0.81036275  0.21519727  0.71285262     0.12100
H912        H  0.75460328  0.23166064  0.76113079     0.14000
C913        C  0.28960143  0.53639082  0.51904507    -0.06000
C914        C  0.30561743  0.56870940  0.52856615    -0.05900
C915        C  0.32621093  0.59906510  0.52056235    -0.24100
C916        C  0.33138407  0.59780794  0.50283810     0.18100
C917        C  0.31626189  0.56501762  0.49311212     0.15400
C918        C  0.29550542  0.53445031  0.50126827    -0.19100
C919        C  0.32225471  0.56342214  0.47540688    -0.20900
C920        C  0.34399718  0.59317119  0.46754838    -0.13500
C921        C  0.35953238  0.62557808  0.47716201     0.03200
C922        C  0.35231521  0.62820389  0.49477772    -0.25600
H923        H  0.30154577  0.57112867  0.54225510     0.08300
H924        H  0.33788280  0.62372597  0.52824625     0.11900
H925        H  0.28320450  0.50989518  0.49373835     0.11800
H926        H  0.31101054  0.53853263  0.46771353     0.11500
H927        H  0.34978982  0.59003621  0.45401476     0.12100
H928        H  0.36503525  0.65231008  0.50241668     0.14000
C929        C  0.30621208  0.40482780  0.57515431    -0.06000
C930        C  0.31196334  0.36215432  0.57595389    -0.05900
C931        C  0.34733982  0.34641730  0.57752205    -0.24100
C932        C  0.37746374  0.37313800  0.57814292     0.18100
C933        C  0.37161972  0.41610904  0.57853368     0.15400
C934        C  0.33606909  0.43161052  0.57730514    -0.19100
C935        C  0.40155750  0.44297719  0.57882631    -0.20900
C936        C  0.43693635  0.42756468  0.57722672    -0.13500
C937        C  0.44300491  0.38501951  0.57568403     0.03200
C938        C  0.41325518  0.35780385  0.57706105    -0.25600
H939        H  0.28939648  0.34088928  0.57434242     0.08300
H940        H  0.35126728  0.31338475  0.57729467     0.11900
H941        H  0.33194722  0.46460513  0.57684288     0.11800
H942        H  0.39752454  0.47599176  0.57925991     0.11500
H943        H  0.45946618  0.44906346  0.57632961     0.12100
H944        H  0.41762950  0.32492958  0.57576811     0.14000
C945        C  0.00285277  0.32158337  0.74167696    -0.06000
C946        C  0.00514573  0.32237407  0.75954239    -0.05900
C947        C  0.99811240  0.28669332  0.76875667    -0.24100
C948        C  0.98857846  0.25004667  0.76016662     0.18100
C949        C  0.98437930  0.24968037  0.74224035     0.15400
C950        C  0.99136287  0.28551032  0.73313893    -0.19100
C951        C  0.97425699  0.21323337  0.73368022    -0.20900
C952        C  0.96861394  0.17718032  0.74283802    -0.13500
C953        C  0.97348572  0.17706690  0.76062200     0.03200
C954        C  0.98345266  0.21370481  0.76919302    -0.25600
H955        H  0.01425697  0.34983985  0.76626712     0.08300
H956        H  0.00112383  0.28743882  0.78253393     0.11900
H957        H  0.98926954  0.28492833  0.71930466     0.11800
H958        H  0.97074425  0.21262683  0.71992760     0.11500
H959        H  0.96036321  0.14947330  0.73604038     0.12100
H960        H  0.98655491  0.21423639  0.78297648     0.14000
C961        C  0.15418287  0.45085544  0.59815669    -0.06000
C962        C  0.15880384  0.48563107  0.60884882    -0.05900
C963        C  0.13969635  0.48929353  0.62428797    -0.24100
C964        C  0.11597914  0.45795418  0.62948304     0.18100
C965        C  0.11069750  0.42320310  0.61867717     0.15400
C966        C  0.12937666  0.42015815  0.60301807    -0.19100
C967        C  0.08768496  0.39137600  0.62394804    -0.20900
C968        C  0.07118012  0.39311598  0.64001285    -0.13500
C969        C  0.07665482  0.42708938  0.65100904     0.03200
C970        C  0.09836118  0.46005914  0.64549262    -0.25600
H971        H  0.17746965  0.50997885  0.60532888     0.08300
H972        H  0.14410380  0.51620751  0.63233486     0.11900
H973        H  0.12554946  0.39320595  0.59491244     0.11800
H974        H  0.08317857  0.36460735  0.61582709     0.11500
H975        H  0.05414299  0.36761992  0.64391444     0.12100
H976        H  0.10275578  0.48634045  0.65391108     0.14000
C977        C  0.95420609  0.51266473  0.73425428    -0.06000
C978        C  0.93028406  0.53669912  0.72452957    -0.05900
C979        C  0.90726294  0.56538896  0.73242478    -0.24100
C980        C  0.90725182  0.57017774  0.75025199     0.18100
C981        C  0.93050464  0.54563601  0.76028951     0.15400
C982        C  0.95420218  0.51738438  0.75221069    -0.19100
C983        C  0.92915222  0.54943464  0.77821258    -0.20900
C984        C  0.90421826  0.57640977  0.78607089    -0.13500
C985        C  0.88150665  0.60119056  0.77610798     0.03200
C986        C  0.88360612  0.59837884  0.75820574    -0.25600
H987        H  0.93000993  0.53408456  0.71071573     0.08300
H988        H  0.88938380  0.58378567  0.72457470     0.11900
H989        H  0.97253488  0.49908789  0.75987918     0.11800
H990        H  0.94659407  0.53071467  0.78613603     0.11500
H991        H  0.90240455  0.57770657  0.79988580     0.12100
H992        H  0.86528450  0.61658161  0.75047011     0.14000
C993        C  0.93555253  0.37636518  0.68021304    -0.06000
C994        C  0.92860986  0.33380134  0.67953297    -0.05900
C995        C  0.89286299  0.31889274  0.67840113    -0.24100
C996        C  0.86333544  0.34628529  0.67825274     0.18100
C997        C  0.87008173  0.38912344  0.67809246     0.15400
C998        C  0.90614498  0.40387307  0.67877141    -0.19100
C999        C  0.84059226  0.41655434  0.67836218    -0.20900
C1000       C  0.80489999  0.40183881  0.67992064    -0.13500
C1001       C  0.79794779  0.35939637  0.68092726     0.03200
C1002       C  0.82727978  0.33166560  0.67936960    -0.25600
H1003       H  0.95078489  0.31195287  0.68054845     0.08300
H1004       H  0.88825817  0.28596035  0.67846455     0.11900
H1005       H  0.91108022  0.43674981  0.67942244     0.11800
H1006       H  0.84522032  0.44947556  0.67818597     0.11500
H1007       H  0.78279627  0.42382229  0.68101538     0.12100
H1008       H  0.82234622  0.29886651  0.68026550     0.14000
C1009       C  0.35265548  0.79697259  0.29407750    -0.06000
C1010       C  0.37300109  0.80564371  0.30890437    -0.05900
C1011       C  0.39056153  0.84336600  0.31101217    -0.24100
C1012       C  0.38768492  0.87336496  0.29841232     0.18100
C1013       C  0.36789377  0.86484041  0.28325867     0.15400
C1014       C  0.35074398  0.82636572  0.28108546    -0.19100
C1015       C  0.36515401  0.89525679  0.27074306    -0.20900
C1016       C  0.38214602  0.93352447  0.27317087    -0.13500
C1017       C  0.40182415  0.94212006  0.28822062     0.03200
C1018       C  0.40424952  0.91180594  0.30081291    -0.25600
H1019       H  0.37474332  0.78336285  0.31906063     0.08300
H1020       H  0.40578425  0.84937152  0.32265393     0.11900
H1021       H  0.33466211  0.82001985  0.26972395     0.11800
H1022       H  0.35004676  0.88939386  0.25906164     0.11500
H1023       H  0.38009295  0.95630000  0.26323428     0.12100
H1024       H  0.41970313  0.91776310  0.31240176     0.14000
C1025       C  0.36485536  0.13926681  0.27597083    -0.06000
C1026       C  0.34581261  0.16898520  0.28562621    -0.05900
C1027       C  0.32191414  0.19631134  0.27763841    -0.24100
C1028       C  0.31771624  0.19527237  0.25979488     0.18100
C1029       C  0.33729250  0.16587883  0.24999354     0.15400
C1030       C  0.36004839  0.13757750  0.25816683    -0.19100
C1031       C  0.33447579  0.16584853  0.23212977    -0.20900
C1032       C  0.31201666  0.19424345  0.22401125    -0.13500
C1033       C  0.29148169  0.22279223  0.23360253     0.03200
C1034       C  0.29458462  0.22324302  0.25154975    -0.25600
H1035       H  0.34983219  0.17137451  0.29931801     0.08300
H1036       H  0.30741912  0.21887355  0.28535777     0.11900
H1037       H  0.37564184  0.11568110  0.25056527     0.11800
H1038       H  0.34958433  0.14377135  0.22442592     0.11500
H1039       H  0.30986055  0.19302015  0.21020722     0.12100
H1040       H  0.27898729  0.24526055  0.25907748     0.14000
C1041       C  0.36010692  0.96754865  0.46243755    -0.06000
C1042       C  0.38158221  0.95927354  0.44792861    -0.05900
C1043       C  0.39951248  0.92180564  0.44609184    -0.24100
C1044       C  0.39584728  0.89181687  0.45865020     0.18100
C1045       C  0.37560823  0.90038113  0.47367180     0.15400
C1046       C  0.35817157  0.93859421  0.47558876    -0.19100
C1047       C  0.37208980  0.86996855  0.48614918    -0.20900
C1048       C  0.38809543  0.83128769  0.48363171    -0.13500
C1049       C  0.40755681  0.82244609  0.46854733     0.03200
C1050       C  0.41150483  0.85308421  0.45619145    -0.25600
H1051       H  0.38330435  0.98126453  0.43766049     0.08300
H1052       H  0.41516201  0.91573861  0.43457089     0.11900
H1053       H  0.34118469  0.94464940  0.48669575     0.11800
H1054       H  0.35673314  0.87596832  0.49775686     0.11500
H1055       H  0.38509160  0.80825211  0.49341686     0.12100
H1056       H  0.42697889  0.84692049  0.44461581     0.14000
C1057       C  0.24954427  0.18676987  0.49257765    -0.06000
C1058       C  0.25569782  0.18754086  0.51031185    -0.05900
C1059       C  0.25386534  0.22452164  0.51958754    -0.24100
C1060       C  0.24626475  0.26150879  0.51125542     0.18100
C1061       C  0.23933704  0.26104317  0.49350259     0.15400
C1062       C  0.24055033  0.22368334  0.48433194    -0.19100
C1063       C  0.23197617  0.29807831  0.48515688    -0.20900
C1064       C  0.23058286  0.33515936  0.49439231    -0.13500
C1065       C  0.23672090  0.33594319  0.51212161     0.03200
C1066       C  0.24519509  0.29888718  0.52040700    -0.25600
H1067       H  0.26318615  0.15973430  0.51693039     0.08300
H1068       H  0.25918690  0.22432131  0.53320918     0.11900
H1069       H  0.23634784  0.22377773  0.47061614     0.11800
H1070       H  0.22675557  0.29828932  0.47152728     0.11500
H1071       H  0.22357469  0.36305508  0.48772805     0.12100
H1072       H  0.24968032  0.29880357  0.53410309     0.14000
C1073       C  0.33723696  0.08977495  0.40510096    -0.06000
C1074       C  0.34823905  0.12798486  0.39866152    -0.05900
C1075       C  0.36775912  0.13028083  0.38336546    -0.24100
C1076       C  0.37732567  0.09431192  0.37438873     0.18100
C1077       C  0.36727545  0.05554399  0.38093812     0.15400
C1078       C  0.34677565  0.05353159  0.39613586    -0.19100
C1079       C  0.37818190  0.01957814  0.37221453    -0.20900
C1080       C  0.39868062  0.02207617  0.35712904    -0.13500
C1081       C  0.40776211  0.06052640  0.35031099     0.03200
C1082       C  0.39695535  0.09653468  0.35901444    -0.25600
H1083       H  0.34123378  0.15625270  0.40535953     0.08300
H1084       H  0.37549773  0.16020621  0.37859095     0.11900
H1085       H  0.33885636  0.02387488  0.40114738     0.11800
H1086       H  0.37100489  0.98957735  0.37708893     0.11500
H1087       H  0.40684957  0.99399144  0.35059226     0.12100
H1088       H  0.40439385  0.12630289  0.35394879     0.14000
C1089       C  0.44992038  0.25154779  0.52121792    -0.06000
C1090       C  0.42615733  0.22836989  0.53142795    -0.05900
C1091       C  0.40226410  0.19980783  0.52394928    -0.24100
C1092       C  0.40162158  0.19421351  0.50613941     0.18100
C1093       C  0.42419724  0.21877030  0.49572790     0.15400
C1094       C  0.44819488  0.24714866  0.50332737    -0.19100
C1095       C  0.42263289  0.21428083  0.47787837    -0.20900
C1096       C  0.39880412  0.18573396  0.47038776    -0.13500
C1097       C  0.37718199  0.16043658  0.48065156     0.03200
C1098       C  0.37866063  0.16471349  0.49852634    -0.25600
H1099       H  0.42702867  0.23116684  0.54523110     0.08300
H1100       H  0.38477227  0.18160919  0.53209834     0.11900
H1101       H  0.46614753  0.26514344  0.49530263     0.11800
H1102       H  0.43948520  0.23319380  0.46972147     0.11500
H1103       H  0.39708601  0.18346139  0.45658554     0.12100
H1104       H  0.36085882  0.14620823  0.50643508     0.14000
C1105       C  0.50843950  0.30898564  0.23529885    -0.06000
C1106       C  0.47843720  0.28739027  0.22843836    -0.05900
C1107       C  0.46850751  0.24901182  0.23484160    -0.24100
C1108       C  0.48883186  0.23129622  0.24802086     0.18100
C1109       C  0.51893044  0.25296724  0.25505628     0.15400
C1110       C  0.52832646  0.29176589  0.24875388    -0.19100
C1111       C  0.53926693  0.23540220  0.26824417    -0.20900
C1112       C  0.52926435  0.19725998  0.27476713    -0.13500
C1113       C  0.49920821  0.17568744  0.26800940     0.03200
C1114       C  0.47935941  0.19256019  0.25443952    -0.25600
H1115       H  0.46293494  0.30001711  0.21795020     0.08300
H1116       H  0.44528099  0.23297084  0.22933880     0.11900
H1117       H  0.55193447  0.30785654  0.25388691     0.11800
H1118       H  0.56246704  0.25151090  0.27373659     0.11500
H1119       H  0.54457758  0.18491672  0.28537802     0.12100
H1120       H  0.45559099  0.17649329  0.24945533     0.14000
C1121       C  0.47124701  0.50221283  0.24293059    -0.06000
C1122       C  0.45112869  0.48167529  0.25551491    -0.05900
C1123       C  0.42753696  0.50350634  0.26632720    -0.24100
C1124       C  0.42406437  0.54628156  0.26484352     0.18100
C1125       C  0.44474679  0.56729640  0.25243906     0.15400
C1126       C  0.46802485  0.54510680  0.24150160    -0.19100
C1127       C  0.44137392  0.61007465  0.25101593    -0.20900
C1128       C  0.41638637  0.63162377  0.26122966    -0.13500
C1129       C  0.39456564  0.61078989  0.27312414     0.03200
C1130       C  0.39942637  0.56818585  0.27519873    -0.25600
H1131       H  0.45343115  0.44866622  0.25689015     0.08300
H1132       H  0.41187548  0.48692900  0.27577831     0.11900
H1133       H  0.48394101  0.56128515  0.23200630     0.11800
H1134       H  0.45724085  0.62668266  0.24164801     0.11500
H1135       H  0.41306867  0.66433851  0.25930873     0.12100
H1136       H  0.38267540  0.55160031  0.28424457     0.14000
C1137       C  0.31447254  0.34129497  0.17828505    -0.06000
C1138       C  0.33954472  0.30870416  0.17663182    -0.05900
C1139       C  0.37713144  0.31642251  0.17585666    -0.24100
C1140       C  0.39037766  0.35689990  0.17666557     0.18100
C1141       C  0.36523771  0.38989767  0.17733659     0.15400
C1142       C  0.32756811  0.38192792  0.17809478    -0.19100
C1143       C  0.37820178  0.43036489  0.17815781    -0.20900
C1144       C  0.41557874  0.43808821  0.17937228    -0.13500
C1145       C  0.44090838  0.40556740  0.17973695     0.03200
C1146       C  0.42816473  0.36492852  0.17774543    -0.25600
H1147       H  0.33025350  0.27707237  0.17688855     0.08300
H1148       H  0.39586652  0.29067332  0.17529163     0.11900
H1149       H  0.30857287  0.40734075  0.17938558     0.11800
H1150       H  0.35936828  0.45604482  0.17855639     0.11500
H1151       H  0.42458423  0.46970070  0.18078459     0.12100
H1152       H  0.44732172  0.33956668  0.17815919     0.14000
C1153       C  0.74416150  0.34233645  0.00910491    -0.06000
C1154       C  0.73219853  0.33969257  0.99207646    -0.05900
C1155       C  0.73345040  0.30226918  0.98322307    -0.24100
C1156       C  0.74644708  0.26702380  0.99134515     0.18100
C1157       C  0.75959967  0.26965827  0.00827640     0.15400
C1158       C  0.75890087  0.30740582  0.01694294    -0.19100
C1159       C  0.77258135  0.23434247  0.01637895    -0.20900
C1160       C  0.77374260  0.19687943  0.00752155    -0.13500
C1161       C  0.76177369  0.19433804  0.99050786     0.03200
C1162       C  0.74705230  0.22931817  0.98269501    -0.25600
H1163       H  0.72035416  0.36608759  0.98585495     0.08300
H1164       H  0.72347554  0.30067916  0.97019233     0.11900
H1165       H  0.76795839  0.30894783  0.03012826     0.11800
H1166       H  0.78259454  0.23590703  0.02940119     0.11500
H1167       H  0.78557590  0.17043282  0.01370792     0.12100
H1168       H  0.73775510  0.22781601  0.96954209     0.14000
C1169       C  0.66380456  0.42673907  0.09884376    -0.06000
C1170       C  0.65778183  0.38654916  0.10466351    -0.05900
C1171       C  0.64072446  0.37972877  0.12034155    -0.24100
C1172       C  0.62854326  0.41297517  0.13035825     0.18100
C1173       C  0.63423682  0.45360764  0.12461368     0.15400
C1174       C  0.65247186  0.46028655  0.10902450    -0.19100
C1175       C  0.62090651  0.48673878  0.13441117    -0.20900
C1176       C  0.60165152  0.47967170  0.14955778    -0.13500
C1177       C  0.59606455  0.43941194  0.15541659     0.03200
C1178       C  0.61009778  0.40618545  0.14584035    -0.25600
H1179       H  0.66660172  0.36024650  0.09709728     0.08300
H1180       H  0.63656819  0.34840128  0.12450642     0.11900
H1181       H  0.65683506  0.49136559  0.10457668     0.11800
H1182       H  0.62487123  0.51808318  0.13023207     0.11500
H1183       H  0.59126856  0.50579120  0.15677901     0.12100
H1184       H  0.60568640  0.37501228  0.15016876     0.14000
C1185       C  0.77861834  0.54167403  0.01716118    -0.06000
C1186       C  0.79154675  0.57674350  0.02595764    -0.05900
C1187       C  0.81283005  0.60598181  0.01765429    -0.24100
C1188       C  0.82193843  0.60068732  0.00038218     0.18100
C1189       C  0.80947060  0.56550467  0.99133196     0.15400
C1190       C  0.78768845  0.53628047  0.99974884    -0.19100
C1191       C  0.81962772  0.55992170  0.97413621    -0.20900
C1192       C  0.84315378  0.58800311  0.96626323    -0.13500
C1193       C  0.85605744  0.62272349  0.97529115     0.03200
C1194       C  0.84442074  0.62937133  0.99222749    -0.25600
H1195       H  0.78491023  0.58188872  0.03930520     0.08300
H1196       H  0.82237854  0.63266190  0.02479824     0.11900
H1197       H  0.77786668  0.50947375  0.99276630     0.11800
H1198       H  0.81039942  0.53315153  0.96696384     0.11500
H1199       H  0.85213064  0.58197389  0.95327850     0.12100
H1200       H  0.85483266  0.65550698  0.99947368     0.14000
C1201       C  0.95016239  0.39673626  0.07147218    -0.06000
C1202       C  0.94376812  0.43845836  0.06788905    -0.05900
C1203       C  0.90849737  0.45463422  0.06859349    -0.24100
C1204       C  0.87891324  0.42932189  0.07277457     0.18100
C1205       C  0.88540189  0.38833966  0.07780867     0.15400
C1206       C  0.92106986  0.37244714  0.07736256    -0.19100
C1207       C  0.85578196  0.36301337  0.08194198    -0.20900
C1208       C  0.82004815  0.37690868  0.07964401    -0.13500
C1209       C  0.81325449  0.41657385  0.07339694     0.03200
C1210       C  0.84290012  0.44336266  0.07081737    -0.25600
H1211       H  0.96571575  0.45811713  0.06354358     0.08300
H1212       H  0.90413498  0.48627808  0.06491744     0.11900
H1213       H  0.92562359  0.34036255  0.08030732     0.11800
H1214       H  0.86020259  0.33169753  0.08604283     0.11500
H1215       H  0.79772754  0.35583332  0.08200246     0.12100
H1216       H  0.83810474  0.47411743  0.06611496     0.14000
C1217       C  0.15152515  0.39541120  0.02512365    -0.06000
C1218       C  0.17170167  0.37470982  0.01242025    -0.05900
C1219       C  0.19630127  0.39611798  0.00220744    -0.24100
C1220       C  0.20034068  0.43873876  0.00429134     0.18100
C1221       C  0.18150229  0.45947787  0.01762977     0.15400
C1222       C  0.15769634  0.43745211  0.02820065    -0.19100
C1223       C  0.18530917  0.50221044  0.01956033    -0.20900
C1224       C  0.20718558  0.52425451  0.00823747    -0.13500
C1225       C  0.22520145  0.50395475  0.99471591     0.03200
C1226       C  0.22190818  0.46112779  0.99289725    -0.25600
H1227       H  0.16677390  0.34239199  0.00974845     0.08300
H1228       H  0.21069205  0.37973915  0.99211428     0.11900
H1229       H  0.14144972  0.45369692  0.03770963     0.11800
H1230       H  0.17101501  0.51862396  0.02967275     0.11500
H1231       H  0.20964527  0.55727323  0.00989301     0.12100
H1232       H  0.23623469  0.44522559  0.98263790     0.14000
C1233       C  0.18371395  0.60889735  0.93334135    -0.06000
C1234       C  0.15768937  0.57708776  0.93222183    -0.05900
C1235       C  0.12073088  0.58592208  0.93015613    -0.24100
C1236       C  0.10901496  0.62679749  0.92944332     0.18100
C1237       C  0.13510968  0.65898135  0.92961985     0.15400
C1238       C  0.17241821  0.64979009  0.93128772    -0.19100
C1239       C  0.12324239  0.69988941  0.92926130    -0.20900
C1240       C  0.08599543  0.70885040  0.93006052    -0.13500
C1241       C  0.05995487  0.67706162  0.93092702     0.03200
C1242       C  0.07160808  0.63603365  0.92976700    -0.25600
H1243       H  0.16579022  0.54525238  0.93354352     0.08300
H1244       H  0.10118185  0.56086138  0.92993403     0.11900
H1245       H  0.19224982  0.67452198  0.93217782     0.11800
H1246       H  0.14276323  0.72497317  0.92927484     0.11500
H1247       H  0.07763412  0.74077105  0.93079864     0.12100
H1248       H  0.05179248  0.61129947  0.93052661     0.14000
C1249       C  0.39940709  0.58811949  0.84815548    -0.06000
C1250       C  0.39088449  0.62806418  0.85392025    -0.05900
C1251       C  0.37181284  0.63427508  0.86914730    -0.24100
C1252       C  0.36029237  0.60058119  0.87871940     0.18100
C1253       C  0.36747917  0.56011749  0.87273542     0.15400
C1254       C  0.38748884  0.55411636  0.85757374    -0.19100
C1255       C  0.35465927  0.52650359  0.88208944    -0.20900
C1256       C  0.33561095  0.53298971  0.89738380    -0.13500
C1257       C  0.32974350  0.57310035  0.90368337     0.03200
C1258       C  0.34193861  0.60677423  0.89424448    -0.25600
H1259       H  0.39971568  0.65466268  0.84679797     0.08300
H1260       H  0.36621733  0.66543554  0.87346918     0.11900
H1261       H  0.39345519  0.52320651  0.85302222     0.11800
H1262       H  0.35958391  0.49529285  0.87765390     0.11500
H1263       H  0.32638112  0.50664266  0.90456083     0.12100
H1264       H  0.33701904  0.63778032  0.89897322     0.14000
C1265       C  0.51676391  0.46682339  0.76828231    -0.06000
C1266       C  0.53083733  0.43352889  0.77746092    -0.05900
C1267       C  0.55232887  0.40371145  0.76936171    -0.24100
C1268       C  0.56036473  0.40658805  0.75190332     0.18100
C1269       C  0.54559719  0.43906554  0.74231257    -0.00600
C1270       C  0.52373132  0.46897561  0.75055298    -0.19100
C1271       C  0.55404452  0.44165819  0.72481107    -0.20900
C1272       C  0.57898717  0.41413753  0.71724396    -0.13500
C1273       C  0.59543282  0.38324692  0.72700879     0.03200
C1274       C  0.58447514  0.37861017  0.74414363    -0.25600
H1275       H  0.52555887  0.43070359  0.79101909     0.08300
H1276       H  0.56336648  0.37884789  0.77686488     0.11900
H1277       H  0.51257370  0.49408846  0.74322897     0.11800
H1278       H  0.54269776  0.46609525  0.71717588     0.11500
H1279       H  0.58689622  0.41845844  0.70404636     0.12100
H1280       H  0.59660043  0.35474560  0.75185254     0.14000
C1281       C  0.55505223  0.59189596  0.82435082    -0.06000
C1282       C  0.58008358  0.55964605  0.82658751    -0.05900
C1283       C  0.61741634  0.56776868  0.82818864    -0.24100
C1284       C  0.63041826  0.60825642  0.82733576     0.18100
C1285       C  0.60523744  0.64103831  0.82607571     0.15400
C1286       C  0.56772346  0.63270858  0.82485131    -0.19100
C1287       C  0.61810789  0.68146540  0.82498182    -0.20900
C1288       C  0.65552281  0.68916932  0.82403131    -0.13500
C1289       C  0.68087847  0.65664049  0.82427340     0.03200
C1290       C  0.66812360  0.61629504  0.82663094    -0.25600
H1291       H  0.57096821  0.52793549  0.82637191     0.08300
H1292       H  0.63623552  0.54224578  0.82927623     0.11900
H1293       H  0.54874072  0.65786510  0.82307251     0.11800
H1294       H  0.59922552  0.70698626  0.82407820     0.11500
H1295       H  0.66450253  0.72060367  0.82230146     0.12100
H1296       H  0.68730035  0.59092542  0.82675789     0.14000
C1297       C  0.63756490  0.06600696  0.54272386    -0.06000
C1298       C  0.61530745  0.07496987  0.55691567    -0.05900
C1299       C  0.59768036  0.11271506  0.55840115    -0.24100
C1300       C  0.60236068  0.14244574  0.54581089     0.18100
C1301       C  0.62391036  0.13361104  0.53122355     0.15400
C1302       C  0.64108877  0.09504296  0.52964316    -0.19100
C1303       C  0.62871561  0.16402327  0.51881497    -0.20900
C1304       C  0.61236267  0.20274266  0.52089176    -0.13500
C1305       C  0.59088863  0.21154248  0.53537980     0.03200
C1306       C  0.58612784  0.18107792  0.54776870    -0.25600
H1307       H  0.61246076  0.05310525  0.56717825     0.08300
H1308       H  0.58118606  0.11906182  0.56963547     0.11900
H1309       H  0.65881683  0.08860848  0.51883246     0.11800
H1310       H  0.64516820  0.15791394  0.50755239     0.11500
H1311       H  0.61609557  0.22555955  0.51107290     0.12100
H1312       H  0.56966592  0.18734815  0.55903070     0.14000
C1313       C  0.61289856  0.87543635  0.52521219    -0.06000
C1314       C  0.58752644  0.89729697  0.51534794    -0.05900
C1315       C  0.56317412  0.87672079  0.50454368    -0.24100
C1316       C  0.56343638  0.83374814  0.50342391     0.18100
C1317       C  0.58741755  0.81110938  0.51389488     0.15400
C1318       C  0.61206785  0.83210494  0.52474995    -0.19100
C1319       C  0.58670992  0.76793739  0.51302520    -0.20900
C1320       C  0.56246729  0.74756753  0.50193816    -0.13500
C1321       C  0.53936055  0.77001748  0.49119149     0.03200
C1322       C  0.54009474  0.81312551  0.49196129    -0.25600
H1323       H  0.58744999  0.93061744  0.51544431     0.08300
H1324       H  0.54465450  0.89451129  0.49677410     0.11900
H1325       H  0.63160621  0.81482522  0.53217735     0.11800
H1326       H  0.60470425  0.74996010  0.52097946     0.11500
H1327       H  0.56189662  0.71424997  0.50165443     0.12100
H1328       H  0.52168480  0.83057558  0.48398031     0.14000
C1329       C  0.64240049  0.19282517  0.71803463    -0.06000
C1330       C  0.62091071  0.18480178  0.73249495    -0.05900
C1331       C  0.60614442  0.14559089  0.73486660    -0.24100
C1332       C  0.61284444  0.11417709  0.72280353     0.18100
C1333       C  0.63383108  0.12264216  0.70807581     0.15400
C1334       C  0.64807684  0.16178633  0.70574867    -0.19100
C1335       C  0.64040606  0.09185043  0.69583165    -0.20900
C1336       C  0.62531535  0.05305795  0.69787110    -0.13500
C1337       C  0.60393318  0.04447064  0.71226763     0.03200
C1338       C  0.59834251  0.07472480  0.72493266    -0.25600
H1339       H  0.61651389  0.20837037  0.74218074     0.08300
H1340       H  0.58993655  0.13970815  0.74617327     0.11900
H1341       H  0.66437871  0.16778638  0.69446164     0.11800
H1342       H  0.65650208  0.09802513  0.68451260     0.11500
H1343       H  0.62942620  0.02998825  0.68793923     0.12100
H1344       H  0.58108032  0.06826392  0.73585189     0.14000
C1345       C  0.51607478  0.81584980  0.74319851    -0.06000
C1346       C  0.52683595  0.81383091  0.76038934    -0.05900
C1347       C  0.52536477  0.77655793  0.76904521    -0.24100
C1348       C  0.51334593  0.74074766  0.76057780     0.18100
C1349       C  0.50309813  0.74236391  0.74320778     0.15400
C1350       C  0.50436333  0.77985294  0.73467730    -0.19100
C1351       C  0.49117929  0.70658120  0.73471358    -0.20900
C1352       C  0.48701214  0.67004016  0.74367843    -0.13500
C1353       C  0.49517798  0.66867757  0.76119147     0.03200
C1354       C  0.50995455  0.70374252  0.76937177    -0.25600
H1355       H  0.53677056  0.84097403  0.76708044     0.08300
H1356       H  0.53347707  0.77576363  0.78235412     0.11900
H1357       H  0.49687764  0.78075437  0.72128048     0.11800
H1358       H  0.48362753  0.70727807  0.72133083     0.11500
H1359       H  0.47558434  0.64347507  0.73711506     0.12100
H1360       H  0.51639597  0.70315979  0.78289278     0.14000
C1361       C  0.65135124  0.94666408  0.60011942    -0.06000
C1362       C  0.64030009  0.98466597  0.60708588    -0.05900
C1363       C  0.61913497  0.98630749  0.62193973    -0.24100
C1364       C  0.60949471  0.94995719  0.63028827     0.18100
C1365       C  0.62062901  0.91154596  0.62335938     0.15400
C1366       C  0.64088507  0.91011961  0.60813806    -0.19100
C1367       C  0.61211298  0.87528608  0.63200349    -0.20900
C1368       C  0.59342034  0.87709817  0.64755203    -0.13500
C1369       C  0.58216257  0.91507640  0.65452009     0.03200
C1370       C  0.58976140  0.95141514  0.64567260    -0.25600
H1371       H  0.64787767  0.01312721  0.60094612     0.08300
H1372       H  0.61089456  0.01599525  0.62706331     0.11900
H1373       H  0.64957612  0.88072796  0.60285029     0.11800
H1374       H  0.62051201  0.84561919  0.62691432     0.11500
H1375       H  0.58768704  0.84870704  0.65414946     0.12100
H1376       H  0.58149648  0.98085064  0.65106727     0.14000
C1377       C  0.70952278  0.75560511  0.76549292    -0.06000
C1378       C  0.68189858  0.73293465  0.75726920    -0.05900
C1379       C  0.65749842  0.75217950  0.74626400    -0.24100
C1380       C  0.66090654  0.79428639  0.74297991     0.18100
C1381       C  0.68870918  0.81742555  0.75119734     0.15400
C1382       C  0.71258515  0.79801647  0.76261945    -0.19100
C1383       C  0.69214009  0.85948797  0.74778660    -0.20900
C1384       C  0.66743798  0.87872512  0.73685995    -0.13500
C1385       C  0.63903663  0.85621434  0.72902015     0.03200
C1386       C  0.63651183  0.81371607  0.73186526    -0.25600
H1387       H  0.67940963  0.70013820  0.75929299     0.08300
H1388       H  0.63626912  0.73401978  0.74014662     0.11900
H1389       H  0.73432021  0.81543076  0.76874463     0.11800
H1390       H  0.71335885  0.87770381  0.75388241     0.11500
H1391       H  0.66969364  0.91161138  0.73505221     0.12100
H1392       H  0.61430821  0.79614805  0.72621106     0.14000
C1393       C  0.74765252  0.70404620  0.48458957    -0.06000
C1394       C  0.72091130  0.72873794  0.47693446    -0.05900
C1395       C  0.71410749  0.76860174  0.48304395    -0.24100
C1396       C  0.73448574  0.78487868  0.49670772     0.18100
C1397       C  0.76148998  0.76029441  0.50449602     0.15400
C1398       C  0.76760471  0.71990340  0.49852533    -0.19100
C1399       C  0.78210932  0.77665283  0.51804643    -0.20900
C1400       C  0.77512870  0.81636473  0.52424505    -0.13500
C1401       C  0.74764284  0.84073106  0.51693187     0.03200
C1402       C  0.72791395  0.82503269  0.50288638    -0.25600
H1403       H  0.70569767  0.71738575  0.46597543     0.08300
H1404       H  0.69331413  0.78691970  0.47690371     0.11900
H1405       H  0.78901256  0.70153183  0.50419216     0.11800
H1406       H  0.80307068  0.75841539  0.52410761     0.11500
H1407       H  0.79044271  0.82756069  0.53520012     0.12100
H1408       H  0.70615284  0.84313819  0.49737291     0.14000
C1409       C  0.69884569  0.50664325  0.48267648    -0.06000
C1410       C  0.67431267  0.48345189  0.47269805    -0.05900
C1411       C  0.65186980  0.45405267  0.48019712    -0.24100
C1412       C  0.65397278  0.44685399  0.49779351     0.18100
C1413       C  0.67785192  0.47060003  0.50809530     0.15400
C1414       C  0.69994724  0.50075325  0.50047877    -0.19100
C1415       C  0.67951129  0.46322606  0.52574858    -0.20900
C1416       C  0.65721251  0.43312641  0.53313636    -0.13500
C1417       C  0.63338856  0.40944082  0.52294403     0.03200
C1418       C  0.63236312  0.41634621  0.50521311    -0.25600
H1419       H  0.67314188  0.48742456  0.45897988     0.08300
H1420       H  0.63343566  0.43629660  0.47216450     0.11900
H1421       H  0.71920452  0.51812249  0.50823372     0.11800
H1422       H  0.69763900  0.48113432  0.53386921     0.11500
H1423       H  0.65802419  0.42897445  0.54684279     0.12100
H1424       H  0.61358539  0.39904959  0.49717008     0.14000
C1425       C  0.69204026  0.62884146  0.42439725    -0.06000
C1426       C  0.68855473  0.67191112  0.42447403    -0.05900
C1427       C  0.65412555  0.69017088  0.42431863    -0.24100
C1428       C  0.62268394  0.66563283  0.42401404     0.18100
C1429       C  0.62600211  0.62240155  0.42244407     0.15400
C1430       C  0.66069696  0.60426308  0.42255717    -0.19100
C1431       C  0.59453780  0.59789599  0.42199638    -0.20900
C1432       C  0.56026021  0.61577439  0.42433713    -0.13500
C1433       C  0.55694223  0.65840291  0.42721890     0.03200
C1434       C  0.58816013  0.68337822  0.42636029    -0.25600
H1435       H  0.71230778  0.69152843  0.42594606     0.08300
H1436       H  0.65208970  0.72335889  0.42536241     0.11900
H1437       H  0.66314271  0.57101916  0.42242631     0.11800
H1438       H  0.59654018  0.56475877  0.42064804     0.11500
H1439       H  0.53655529  0.59586577  0.42488924     0.12100
H1440       H  0.58582150  0.71631674  0.42841918     0.14000
C1441       C  0.84564083  0.58624651  0.40530248    -0.06000
C1442       C  0.86092206  0.62352212  0.39982403    -0.05900
C1443       C  0.87972822  0.62563805  0.38438798    -0.24100
C1444       C  0.88427923  0.59030609  0.37424223     0.18100
C1445       C  0.87050607  0.55209680  0.37988710     0.15400
C1446       C  0.85069126  0.55038305  0.39531513    -0.19100
C1447       C  0.87672091  0.51653407  0.36991379    -0.20900
C1448       C  0.89591178  0.51906001  0.35444080    -0.13500
C1449       C  0.90812283  0.55729166  0.34852288     0.03200
C1450       C  0.90233890  0.59273411  0.35850323    -0.25600
H1451       H  0.85731484  0.65156036  0.40725767     0.08300
H1452       H  0.89046263  0.65502389  0.38032073     0.11900
H1453       H  0.83931525  0.52142225  0.39953539     0.11800
H1454       H  0.86679901  0.48688019  0.37407371     0.11500
H1455       H  0.90054579  0.49137249  0.34690618     0.12100
H1456       H  0.91248075  0.62214401  0.35410854     0.14000
C1457       C  0.04540907  0.48494714  0.26670208    -0.06000
C1458       C  0.06771489  0.45960070  0.27667648    -0.05900
C1459       C  0.09125820  0.43132706  0.26903957    -0.24100
C1460       C  0.09300487  0.42764041  0.25122619     0.18100
C1461       C  0.07202198  0.45387712  0.24088515     0.15400
C1462       C  0.04833051  0.48274727  0.24871716    -0.19100
C1463       C  0.07479721  0.45001108  0.22297868    -0.20900
C1464       C  0.09817518  0.42051712  0.21549452    -0.13500
C1465       C  0.11863510  0.39397525  0.22580674     0.03200
C1466       C  0.11556634  0.39791575  0.24369524    -0.25600
H1467       H  0.06624776  0.46085079  0.29050579     0.08300
H1468       H  0.10759067  0.41170132  0.27710680     0.11900
H1469       H  0.03115717  0.50202935  0.24089197     0.11800
H1470       H  0.05913031  0.46996565  0.21478003     0.11500
H1471       H  0.10057364  0.41879954  0.20170936     0.12100
H1472       H  0.13163114  0.37845216  0.25195415     0.14000
C1473       C  0.05748521  0.60577663  0.32537529    -0.06000
C1474       C  0.06238800  0.64867217  0.32582687    -0.05900
C1475       C  0.09742256  0.66565863  0.32650860    -0.24100
C1476       C  0.12816087  0.64003571  0.32679436     0.18100
C1477       C  0.12347535  0.59695567  0.32769452     0.15400
C1478       C  0.08814474  0.58008487  0.32706397    -0.19100
C1479       C  0.15428233  0.57140359  0.32809309    -0.20900
C1480       C  0.18928181  0.58813288  0.32636304    -0.13500
C1481       C  0.19407387  0.63070436  0.32424574     0.03200
C1482       C  0.16338202  0.65662710  0.32515799    -0.25600
H1483       H  0.03927980  0.66914668  0.32450195     0.08300
H1484       H  0.10051194  0.69877279  0.32596334     0.11900
H1485       H  0.08469002  0.54695178  0.32681761     0.11800
H1486       H  0.15124112  0.53833336  0.32895312     0.11500
H1487       H  0.21243836  0.56747192  0.32579301     0.12100
H1488       H  0.16667849  0.68954338  0.32368273     0.14000
C1489       C  0.10801622  0.04424449  0.21759923    -0.06000
C1490       C  0.14602529  0.04296616  0.21947130    -0.05900
C1491       C  0.16614354  0.07959259  0.22013804    -0.24100
C1492       C  0.14829816  0.11777327  0.21928631     0.18100
C1493       C  0.10981336  0.11919606  0.21831922     0.15400
C1494       C  0.09000668  0.08240595  0.21730303    -0.19100
C1495       C  0.09188106  0.15737281  0.21798625    -0.20900
C1496       C  0.11204855  0.19395081  0.21795268    -0.13500
C1497       C  0.15026876  0.19260316  0.21795366     0.03200
C1498       C  0.16825620  0.15452184  0.21893480    -0.25600
H1499       H  0.16016268  0.01374290  0.21978186     0.08300
H1500       H  0.19563533  0.07808111  0.22104289     0.11900
H1501       H  0.06049613  0.08336469  0.21614101     0.11800
H1502       H  0.06235053  0.15888482  0.21739560     0.11500
H1503       H  0.09792565  0.22311601  0.21714783     0.12100
H1504       H  0.19786915  0.15357357  0.21910314     0.14000
C1505       C  0.99215670  0.68004477  0.26607568    -0.06000
C1506       C  0.99707424  0.67754656  0.24833172    -0.05900
C1507       C  0.00089319  0.71304198  0.23882070    -0.24100
C1508       C  0.99996754  0.75167451  0.24689203     0.18100
C1509       C  0.99648382  0.75500816  0.26479316     0.15400
C1510       C  0.99261612  0.71892765  0.27436230    -0.19100
C1511       C  0.99659802  0.79433049  0.27260316    -0.20900
C1512       C  0.00143867  0.82979189  0.26270849    -0.13500
C1513       C  0.00527912  0.82619550  0.24489086     0.03200
C1514       C  0.00312326  0.78694449  0.23717292    -0.25600
H1515       H  0.99684224  0.64809126  0.24170399     0.08300
H1516       H  0.00407734  0.71028051  0.22507898     0.11900
H1517       H  0.98856501  0.72119464  0.28806813     0.11800
H1518       H  0.99395105  0.79754016  0.28634716     0.11500
H1519       H  0.00348423  0.85957926  0.26898317     0.12100
H1520       H  0.00570377  0.78336918  0.22342190     0.14000
C1521       C  0.13612717  0.84483088  0.22833953    -0.06000
C1522       C  0.16229312  0.82502156  0.21802668    -0.05900
C1523       C  0.18821468  0.79864928  0.22534719    -0.24100
C1524       C  0.18787961  0.79109179  0.24303756     0.18100
C1525       C  0.16131450  0.81063389  0.25338890     0.15400
C1526       C  0.13596932  0.83728418  0.24603458    -0.19100
C1527       C  0.16037489  0.80331209  0.27099379    -0.20900
C1528       C  0.18605743  0.77751594  0.27843816    -0.13500
C1529       C  0.21299617  0.75810661  0.26843766     0.03200
C1530       C  0.21355421  0.76463274  0.25063277    -0.25600
H1531       H  0.16275370  0.83002233  0.20437073     0.08300
H1532       H  0.20834649  0.78396300  0.21716789     0.11900
H1533       H  0.11547058  0.85160263  0.25415578     0.11800
H1534       H  0.13997785  0.81792639  0.27906084     0.11500
H1535       H  0.18496853  0.77288345  0.29211979     0.12100
H1536       H  0.23442336  0.75006984  0.24281884     0.14000
C1537       C  0.15083897  0.07153921  0.04536590    -0.06000
C1538       C  0.13216061  0.08186027  0.06051335    -0.05900
C1539       C  0.11367854  0.11920708  0.06204670    -0.24100
C1540       C  0.11426202  0.14718259  0.04857703     0.18100
C1541       C  0.13327263  0.13719028  0.03333396     0.15400
C1542       C  0.15096503  0.09912287  0.03172296    -0.19100
C1543       C  0.13474183  0.16572134  0.02007659    -0.20900
C1544       C  0.11725978  0.20367142  0.02183505    -0.13500
C1545       C  0.09764588  0.21348531  0.03678692     0.03200
C1546       C  0.09634051  0.18507366  0.05014364    -0.25600
H1547       H  0.13200059  0.06101731  0.07121426     0.08300
H1548       H  0.09939394  0.12644911  0.07384020     0.11900
H1549       H  0.16595701  0.09162055  0.02013927     0.11800
H1550       H  0.14937625  0.15869004  0.00835745     0.11500
H1551       H  0.11845752  0.22502948  0.01133281     0.12100
H1552       H  0.08149727  0.19249249  0.06177774     0.14000
C1553       C  0.26725772  0.69682213  0.99083504    -0.06000
C1554       C  0.27649902  0.69960245  0.00821016    -0.05900
C1555       C  0.27200376  0.73650354  0.01722428    -0.24100
C1556       C  0.25833843  0.77126720  0.00897640     0.18100
C1557       C  0.24846873  0.76885112  0.99156131     0.15400
C1558       C  0.25282031  0.73156275  0.98261075    -0.19100
C1559       C  0.23457262  0.80380532  0.98343344    -0.20900
C1560       C  0.22950694  0.84051604  0.99267249    -0.13500
C1561       C  0.23865369  0.84282768  0.01009133     0.03200
C1562       C  0.25386203  0.80820968  0.01800774    -0.25600
H1563       H  0.28786485  0.67342590  0.01476894     0.08300
H1564       H  0.27952246  0.73795505  0.03061349     0.11900
H1565       H  0.24589035  0.72997724  0.96914817     0.11800
H1566       H  0.22693405  0.80249238  0.97005991     0.11500
H1567       H  0.21739390  0.86660357  0.98634627     0.12100
H1568       H  0.26098382  0.80938245  0.03145755     0.14000
C1569       C  0.16090909  0.94559827  0.09917655    -0.06000
C1570       C  0.15863405  0.98358211  0.10787212    -0.05900
C1571       C  0.14085709  0.98669594  0.12362982    -0.24100
C1572       C  0.12561720  0.95170212  0.13111086     0.18100
C1573       C  0.12833859  0.91319273  0.12256501     0.15400
C1574       C  0.14552698  0.91047164  0.10654245    -0.19100
C1575       C  0.11394083  0.87803940  0.13022331    -0.20900
C1576       C  0.09645063  0.88105982  0.14603891    -0.13500
C1577       C  0.09270427  0.91935485  0.15447947     0.03200
C1578       C  0.10766952  0.95458841  0.14695984    -0.25600
H1579       H  0.17033886  0.01103187  0.10236359     0.08300
H1580       H  0.13916805  0.01643009  0.12999122     0.11900
H1581       H  0.14763702  0.88098500  0.09998418     0.11800
H1582       H  0.11604915  0.84822492  0.12395261     0.11500
H1583       H  0.08535287  0.85331198  0.15154800     0.12100
H1584       H  0.10526198  0.98420396  0.15338151     0.14000
C1585       C  0.10799503  0.88581269  0.02168318    -0.06000
C1586       C  0.08789793  0.90666398  0.00917016    -0.05900
C1587       C  0.06282412  0.88559546  0.99879518    -0.24100
C1588       C  0.05731339  0.84320768  0.00070593     0.18100
C1589       C  0.07651301  0.82207842  0.01356243     0.15400
C1590       C  0.10159988  0.84347147  0.02397460    -0.19100
C1591       C  0.07077607  0.77973638  0.01557674    -0.20900
C1592       C  0.04612121  0.75858170  0.00501901    -0.13500
C1593       C  0.02717420  0.77919149  0.99207052     0.03200
C1594       C  0.03306705  0.82158089  0.98993649    -0.25600
H1595       H  0.09249467  0.93908195  0.00696512     0.08300
H1596       H  0.04825224  0.90233565  0.98904929     0.11900
H1597       H  0.11709822  0.82677445  0.03342767     0.11800
H1598       H  0.08528908  0.76299235  0.02534101     0.11500
H1599       H  0.04203491  0.72594214  0.00690460     0.12100
H1600       H  0.01831257  0.83786498  0.98010368     0.14000
C1601       C  0.15085754  0.56903823  0.54168093    -0.06000
C1602       C  0.12720316  0.57612796  0.55551928    -0.05900
C1603       C  0.10797056  0.61281893  0.55695043    -0.24100
C1604       C  0.11247660  0.64330017  0.54467027     0.18100
C1605       C  0.13561920  0.63632784  0.53044594     0.15400
C1606       C  0.15449593  0.59883347  0.52892663    -0.19100
C1607       C  0.13988624  0.66733242  0.51825863    -0.20900
C1608       C  0.12134854  0.70478270  0.52018982    -0.13500
C1609       C  0.09864103  0.71182134  0.53441758     0.03200
C1610       C  0.09437193  0.68081408  0.54656437    -0.25600
H1611       H  0.12407132  0.55339519  0.56543218     0.08300
H1612       H  0.09016544  0.61769922  0.56786029     0.11900
H1613       H  0.17308548  0.59358561  0.51832885     0.11800
H1614       H  0.15752300  0.66264141  0.50728124     0.11500
H1615       H  0.12484650  0.72825435  0.51062025     0.12100
H1616       H  0.07654050  0.68565002  0.55748158     0.14000
C1617       C  0.14009052  0.90603659  0.52880337    -0.06000
C1618       C  0.14853487  0.94427079  0.53640881    -0.05900
C1619       C  0.17137551  0.97213267  0.52810976    -0.24100
C1620       C  0.18576722  0.96248859  0.51194036     0.18100
C1621       C  0.17844093  0.92360015  0.50442740     0.15400
C1622       C  0.15624698  0.89538183  0.51303043    -0.19100
C1623       C  0.19223329  0.91419493  0.48812855    -0.20900
C1624       C  0.21297336  0.94312185  0.47930718    -0.13500
C1625       C  0.22050747  0.98193027  0.48664948     0.03200
C1626       C  0.20680460  0.99133558  0.50303866    -0.25600
H1627       H  0.13613806  0.95342390  0.54843868     0.08300
H1628       H  0.17673451  0.00178996  0.53407132     0.11900
H1629       H  0.14952083  0.86631587  0.50684754     0.11800
H1630       H  0.18676079  0.88458365  0.48214549     0.11500
H1631       H  0.22340493  0.93491554  0.46676566     0.12100
H1632       H  0.21243046  0.02109551  0.50886967     0.14000
C1633       C  0.96541371  0.75842785  0.50847730    -0.06000
C1634       C  0.95134358  0.77646429  0.49364673    -0.05900
C1635       C  0.92652542  0.75486230  0.48329873    -0.24100
C1636       C  0.91583977  0.71475956  0.48753821     0.18100
C1637       C  0.93032329  0.69635670  0.50231620     0.15400
C1638       C  0.95468540  0.71832757  0.51269725    -0.19100
C1639       C  0.92013281  0.65626144  0.50657499    -0.20900
C1640       C  0.89509050  0.63473396  0.49649530    -0.13500
C1641       C  0.87963729  0.65297947  0.48201488     0.03200
C1642       C  0.89054161  0.69293208  0.47745911    -0.25600
H1643       H  0.95932571  0.80731554  0.49012976     0.08300
H1644       H  0.91571831  0.76947297  0.47200828     0.11900
H1645       H  0.96563508  0.70387919  0.52400889     0.11800
H1646       H  0.93110406  0.64176354  0.51786027     0.11500
H1647       H  0.88689738  0.60423448  0.50040196     0.12100
H1648       H  0.87861679  0.70747636  0.46639235     0.14000
C1649       C  0.93234317  0.85832567  0.57152715    -0.06000
C1650       C  0.90615198  0.82681922  0.57282634    -0.05900
C1651       C  0.86944955  0.83613522  0.57566400    -0.24100
C1652       C  0.85816726  0.87718241  0.57694977     0.18100
C1653       C  0.88450415  0.90904886  0.57655552     0.15400
C1654       C  0.92152714  0.89938659  0.57411105    -0.19100
C1655       C  0.87308502  0.95012236  0.57747821    -0.20900
C1656       C  0.83589435  0.95955825  0.57737443    -0.13500
C1657       C  0.80950280  0.92807980  0.57662532     0.03200
C1658       C  0.82086025  0.88690102  0.57733980    -0.25600
H1659       H  0.91387124  0.79489141  0.57107739     0.08300
H1660       H  0.84968802  0.81131386  0.57602703     0.11900
H1661       H  0.94146227  0.92392993  0.57309029     0.11800
H1662       H  0.89284591  0.97495990  0.57731417     0.11500
H1663       H  0.82782806  0.99157219  0.57695077     0.12100
H1664       H  0.80080124  0.86236413  0.57667907     0.14000
C1665       C  0.13511133  0.69626918  0.70961491    -0.06000
C1666       C  0.11331740  0.68749273  0.69526726    -0.05900
C1667       C  0.09632463  0.64938421  0.69340948    -0.24100
C1668       C  0.10128249  0.61913700  0.70576044     0.18100
C1669       C  0.12242915  0.62782294  0.72048475     0.15400
C1670       C  0.13883853  0.66670196  0.72245951    -0.19100
C1671       C  0.12760758  0.59702807  0.73266318    -0.20900
C1672       C  0.11198674  0.55805089  0.73023845    -0.13500
C1673       C  0.09080851  0.54936905  0.71564917     0.03200
C1674       C  0.08567944  0.58019361  0.70346821    -0.25600
H1675       H  0.11023897  0.70984076  0.68521087     0.08300
H1676       H  0.08010350  0.64319711  0.68208425     0.11900
H1677       H  0.15611549  0.67306546  0.73342873     0.11800
H1678       H  0.14374047  0.60305602  0.74402613     0.11500
H1679       H  0.11587822  0.53497678  0.73993273     0.12100
H1680       H  0.06933955  0.57398514  0.69217123     0.14000
C1681       C  0.07942492  0.82046401  0.59887525    -0.06000
C1682       C  0.08574203  0.78027629  0.60461335    -0.05900
C1683       C  0.10476624  0.77358372  0.61983559    -0.24100
C1684       C  0.11722286  0.80700300  0.62974576     0.18100
C1685       C  0.10951577  0.84752152  0.62442476     0.15400
C1686       C  0.09108715  0.85398104  0.60895781    -0.19100
C1687       C  0.12069510  0.88098130  0.63457734    -0.20900
C1688       C  0.14004694  0.87450806  0.64965906    -0.13500
C1689       C  0.14917914  0.83450242  0.65476649     0.03200
C1690       C  0.13744616  0.80072530  0.64478983    -0.25600
H1691       H  0.07684516  0.75397424  0.59705959     0.08300
H1692       H  0.11001067  0.74230521  0.62377033     0.11900
H1693       H  0.08577666  0.88507379  0.60476585     0.11800
H1694       H  0.11469873  0.91220551  0.63079612     0.11500
H1695       H  0.14862802  0.90100461  0.65717490     0.12100
H1696       H  0.14381285  0.76973808  0.64878741     0.14000
C1697       C  0.10617924  0.88371410  0.72987059    -0.06000
C1698       C  0.08219186  0.86166704  0.74043919    -0.05900
C1699       C  0.05568740  0.88204255  0.75013978    -0.24100
C1700       C  0.05253578  0.92487523  0.74943111     0.18100
C1701       C  0.07490767  0.94721274  0.73807026     0.15400
C1702       C  0.10156939  0.92648168  0.72832571    -0.19100
C1703       C  0.07094775  0.99004172  0.73708387    -0.20900
C1704       C  0.04566195  0.01055002  0.74752954    -0.13500
C1705       C  0.02457163  0.98866804  0.75935562     0.03200
C1706       C  0.02786234  0.94578120  0.76013926    -0.25600
H1707       H  0.08489292  0.82870015  0.74180172     0.08300
H1708       H  0.03838384  0.86440034  0.75858388     0.11900
H1709       H  0.11974019  0.94387427  0.72018423     0.11800
H1710       H  0.08761231  0.00768438  0.72836990     0.11500
H1711       H  0.04309718  0.04364947  0.74664399     0.12100
H1712       H  0.01099580  0.92871488  0.76899082     0.14000
C1713       C  0.35946303  0.64567715  0.77330346    -0.06000
C1714       C  0.34394327  0.67844760  0.78259764    -0.05900
C1715       C  0.31870741  0.70455688  0.77487908    -0.24100
C1716       C  0.30937965  0.69890313  0.75761004     0.18100
C1717       C  0.32478606  0.66586255  0.74818757     0.15400
C1718       C  0.34924863  0.63907679  0.75617427    -0.19100
C1719       C  0.31611393  0.66073307  0.73083610    -0.20900
C1720       C  0.29213291  0.68788934  0.72289728    -0.13500
C1721       C  0.27633485  0.72062993  0.73216466     0.03200
C1722       C  0.28525358  0.72598796  0.74955933    -0.25600
H1723       H  0.35175682  0.68415280  0.79576711     0.08300
H1724       H  0.30715944  0.72973702  0.78229246     0.11900
H1725       H  0.36173754  0.61432107  0.74882694     0.11800
H1726       H  0.32791023  0.63574324  0.72339608     0.11500
H1727       H  0.28578330  0.68309286  0.70950266     0.12100
H1728       H  0.27327142  0.75106986  0.75689016     0.14000
C1729       C  0.43260011  0.90187153  0.68280360    -0.06000
C1730       C  0.40764486  0.93481848  0.68343377    -0.05900
C1731       C  0.37032248  0.92799350  0.68160152    -0.24100
C1732       C  0.35708148  0.88805933  0.67909497     0.18100
C1733       C  0.38193229  0.85497763  0.67723307     0.15400
C1734       C  0.41967632  0.86212233  0.67894003    -0.19100
C1735       C  0.36840488  0.81501569  0.67479071    -0.20900
C1736       C  0.33083984  0.80756112  0.67557282    -0.13500
C1737       C  0.30611714  0.83999978  0.67857823     0.03200
C1738       C  0.31939615  0.88044954  0.67953345    -0.25600
H1739       H  0.41676810  0.96593522  0.68612360     0.08300
H1740       H  0.35172680  0.95375416  0.68290164     0.11900
H1741       H  0.43859822  0.83653116  0.67831250     0.11800
H1742       H  0.38690565  0.78927800  0.67316005     0.11500
H1743       H  0.32126855  0.77607256  0.67465900     0.12100
H1744       H  0.30068013  0.90570713  0.68191222     0.14000
C1745       C  0.39762867  0.31534659  0.96334197    -0.06000
C1746       C  0.38156961  0.32451877  0.97927679    -0.05900
C1747       C  0.36727588  0.36368269  0.98272555    -0.24100
C1748       C  0.36926907  0.39453174  0.97038107     0.18100
C1749       C  0.38542399  0.38544436  0.95433436     0.15400
C1750       C  0.39902929  0.34598259  0.95087017    -0.19100
C1751       C  0.38780882  0.41597955  0.94195291    -0.20900
C1752       C  0.37292584  0.45467355  0.94511637    -0.13500
C1753       C  0.35555124  0.46372429  0.96073876     0.03200
C1754       C  0.35464496  0.43392572  0.97357337    -0.25600
H1755       H  0.38056589  0.30155731  0.98917831     0.08300
H1756       H  0.35500143  0.36993980  0.99509117     0.11900
H1757       H  0.41191077  0.33960616  0.93863619     0.11800
H1758       H  0.40032629  0.40962161  0.92964476     0.11500
H1759       H  0.37366729  0.47721419  0.93502681     0.12100
H1760       H  0.34068438  0.44051484  0.98552238     0.14000
C1761       C  0.53445511  0.28784053  0.98093976    -0.06000
C1762       C  0.54919995  0.32121612  0.97192177    -0.05900
C1763       C  0.57206944  0.34987786  0.98002646    -0.24100
C1764       C  0.58081403  0.34588663  0.99736179     0.18100
C1765       C  0.56657392  0.31231427  0.00657784     0.15400
C1766       C  0.54344027  0.28358400  0.99834121    -0.19100
C1767       C  0.57607496  0.30786453  0.02383260    -0.20900
C1768       C  0.60021623  0.33564878  0.03171240    -0.13500
C1769       C  0.61457140  0.36908070  0.02266213     0.03200
C1770       C  0.60423828  0.37435848  0.00551674    -0.25600
H1771       H  0.54279750  0.32545884  0.95854799     0.08300
H1772       H  0.58291658  0.37521829  0.97271214     0.11900
H1773       H  0.53223524  0.25818680  0.00551183     0.11800
H1774       H  0.56556533  0.28230682  0.03112008     0.11500
H1775       H  0.60826418  0.33059521  0.04483899     0.12100
H1776       H  0.61595884  0.39935703  0.99827153     0.14000
C1777       C  0.55782231  0.16258050  0.92330121    -0.06000
C1778       C  0.56329153  0.12019257  0.92046976    -0.05900
C1779       C  0.59840864  0.10387291  0.91967279    -0.24100
C1780       C  0.62876500  0.12961585  0.92166850     0.18100
C1781       C  0.62380935  0.17264293  0.92322927     0.15400
C1782       C  0.58829599  0.18893738  0.92396932    -0.19100
C1783       C  0.65442265  0.19825814  0.92510915    -0.20900
C1784       C  0.68925803  0.18116119  0.92670298    -0.13500
C1785       C  0.69395382  0.13821434  0.92645800     0.03200
C1786       C  0.66375442  0.11273423  0.92320150    -0.25600
H1787       H  0.54038142  0.09911780  0.91988294     0.08300
H1788       H  0.60175226  0.07087400  0.91831754     0.11900
H1789       H  0.58446142  0.22165695  0.92611755     0.11800
H1790       H  0.65126103  0.23132958  0.92615392     0.11500
H1791       H  0.71219826  0.20146871  0.92913404     0.12100
H1792       H  0.66716938  0.07960460  0.92279595     0.14000
C1793       C  0.36734231  0.11606071  0.97635910    -0.06000
C1794       C  0.35246156  0.08263035  0.96713012    -0.05900
C1795       C  0.32789271  0.05555766  0.97490835    -0.24100
C1796       C  0.31852675  0.06081326  0.99220442     0.18100
C1797       C  0.33339372  0.09441407  0.00152854     0.15400
C1798       C  0.35710633  0.12213099  0.99349217    -0.19100
C1799       C  0.32504824  0.09927144  0.01888800    -0.20900
C1800       C  0.30202723  0.07137152  0.02697778    -0.13500
C1801       C  0.28650852  0.03805330  0.01789493     0.03200
C1802       C  0.29496077  0.03293792  0.00041247    -0.25600
H1803       H  0.36031565  0.07709412  0.95395013     0.08300
H1804       H  0.31693072  0.02998488  0.96752005     0.11900
H1805       H  0.36908962  0.14723095  0.00083382     0.11800
H1806       H  0.33639912  0.12467438  0.02625220     0.11500
H1807       H  0.29599248  0.07631836  0.04039921     0.12100
H1808       H  0.28320351  0.00748867  0.99321432     0.14000
C1809       C  0.33717542  0.30799413  0.78440761    -0.06000
C1810       C  0.35918297  0.31659154  0.77019164    -0.05900
C1811       C  0.37455659  0.35554765  0.76828968    -0.24100
C1812       C  0.36793341  0.38645456  0.78053899     0.18100
C1813       C  0.34558751  0.37807882  0.79483573     0.15400
C1814       C  0.33042374  0.33893557  0.79668056    -0.19100
C1815       C  0.33934388  0.40875144  0.80722483    -0.20900
C1816       C  0.35655677  0.44682143  0.80587964    -0.13500
C1817       C  0.37951269  0.45494904  0.79194739     0.03200
C1818       C  0.38428521  0.42514290  0.77904685    -0.25600
H1819       H  0.36457172  0.29314368  0.76056527     0.08300
H1820       H  0.39175254  0.36143445  0.75730613     0.11900
H1821       H  0.31311826  0.33269797  0.80760623     0.11800
H1822       H  0.32219807  0.40283131  0.81822368     0.11500
H1823       H  0.35290286  0.46951235  0.81599626     0.12100
H1824       H  0.40261454  0.43109789  0.76845866     0.14000
C1825       C  0.24342640  0.91573623  0.74294358    -0.06000
C1826       C  0.23277796  0.91935037  0.76015050    -0.05900
C1827       C  0.23845132  0.95616259  0.76920681    -0.24100
C1828       C  0.25434066  0.99004283  0.76108976     0.18100
C1829       C  0.26647189  0.98609754  0.74401260     0.15400
C1830       C  0.26159317  0.94883293  0.73519132    -0.19100
C1831       C  0.28201032  0.01995440  0.73578567    -0.20900
C1832       C  0.28515556  0.05766866  0.74435229    -0.13500
C1833       C  0.27299888  0.06208808  0.76130841     0.03200
C1834       C  0.25774200  0.02797283  0.76964075    -0.25600
H1835       H  0.21861907  0.89438897  0.76637716     0.08300
H1836       H  0.22920163  0.95861540  0.78234045     0.11900
H1837       H  0.26999070  0.94656232  0.72191722     0.11800
H1838       H  0.29148191  0.01734740  0.72268930     0.11500
H1839       H  0.29759433  0.08323434  0.73776419     0.12100
H1840       H  0.24863194  0.03081813  0.78279321     0.14000
C1841       C  0.33063542  0.19476796  0.84682522    -0.06000
C1842       C  0.32813614  0.23301965  0.85531591    -0.05900
C1843       C  0.34606235  0.23967947  0.87091841    -0.24100
C1844       C  0.36621002  0.20794051  0.87840430     0.18100
C1845       C  0.36737548  0.16884427  0.87025490     0.15400
C1846       C  0.34993797  0.16267676  0.85451088    -0.19100
C1847       C  0.38621010  0.13650796  0.87790313    -0.20900
C1848       C  0.40412948  0.14286405  0.89340016    -0.13500
C1849       C  0.40420225  0.18180362  0.90135428     0.03200
C1850       C  0.38526850  0.21443398  0.89383005    -0.25600
H1851       H  0.31312220  0.25809267  0.84966044     0.08300
H1852       H  0.34440391  0.26968484  0.87705034     0.11900
H1853       H  0.35138010  0.13279769  0.84822543     0.11800
H1854       H  0.38713791  0.10631519  0.87189006     0.11500
H1855       H  0.41862960  0.11741096  0.89907483     0.12100
H1856       H  0.38492480  0.24437336  0.90008853     0.14000
C1857       C  0.21305916  0.25235596  0.75658690    -0.06000
C1858       C  0.19275324  0.23098095  0.74410745    -0.05900
C1859       C  0.17022715  0.25227424  0.73275702    -0.24100
C1860       C  0.16820759  0.29541732  0.73346129     0.18100
C1861       C  0.18960495  0.31721408  0.74560068     0.15400
C1862       C  0.21158046  0.29557415  0.75715001    -0.19100
C1863       C  0.18784865  0.36027317  0.74632648    -0.20900
C1864       C  0.16314190  0.38136631  0.73604670    -0.13500
C1865       C  0.14026662  0.35997078  0.72459111     0.03200
C1866       C  0.14395284  0.31703467  0.72284554    -0.25600
H1867       H  0.19393621  0.19772394  0.74330819     0.08300
H1868       H  0.15414356  0.23497628  0.72353218     0.11900
H1869       H  0.22784235  0.31236501  0.76648974     0.11800
H1870       H  0.20428059  0.37750716  0.75543956     0.11500
H1871       H  0.16033244  0.41434074  0.73774708     0.12100
H1872       H  0.12578269  0.30020222  0.71433937     0.14000
C1873       C  0.05453542  0.10752246  0.81897395    -0.06000
C1874       C  0.05882798  0.15003923  0.82180101    -0.05900
C1875       C  0.09356008  0.16727877  0.82329010    -0.24100
C1876       C  0.12453207  0.14226457  0.82197585     0.18100
C1877       C  0.12049019  0.09911677  0.82037019     0.15400
C1878       C  0.08545948  0.08197324  0.81893507    -0.19100
C1879       C  0.15160355  0.07415693  0.81920271    -0.20900
C1880       C  0.18625637  0.09202421  0.81834566    -0.13500
C1881       C  0.19016705  0.13503287  0.81860487     0.03200
C1882       C  0.15934942  0.15991297  0.82115257    -0.25600
H1883       H  0.03540232  0.17034550  0.82197333     0.08300
H1884       H  0.09621201  0.20035353  0.82469552     0.11900
H1885       H  0.08239678  0.04908254  0.81694406     0.11800
H1886       H  0.14904709  0.04101339  0.81812719     0.11500
H1887       H  0.20975102  0.07230351  0.81638218     0.12100
H1888       H  0.16228575  0.19311461  0.82153921     0.14000
C1889       C  0.39586595  0.12026523  0.77297135    -0.06000
C1890       C  0.41851769  0.14111422  0.76139208    -0.05900
C1891       C  0.44314705  0.11937699  0.75096902    -0.24100
C1892       C  0.44520339  0.07633027  0.75176691     0.18100
C1893       C  0.42365563  0.05535314  0.76388436     0.15400
C1894       C  0.39962067  0.07741980  0.77452035    -0.19100
C1895       C  0.42549937  0.01240766  0.76479144    -0.20900
C1896       C  0.44845266  0.99033430  0.75380838    -0.13500
C1897       C  0.46968593  0.01064328  0.74155422     0.03200
C1898       C  0.46794941  0.05378472  0.74055167    -0.25600
H1899       H  0.41601091  0.17404536  0.75983362     0.08300
H1900       H  0.45962599  0.13608831  0.74186921     0.11900
H1901       H  0.38209023  0.06075694  0.78321693     0.11800
H1902       H  0.40910274  0.99584490  0.77397394     0.11500
H1903       H  0.44953929  0.95715768  0.75485093     0.12100
H1904       H  0.48471728  0.06972480  0.73131209     0.14000
C1905       C  0.64891467  0.69201746  0.21953349    -0.06000
C1906       C  0.61199230  0.69296559  0.22429640    -0.05900
C1907       C  0.59243850  0.65614977  0.22613219    -0.24100
C1908       C  0.60979584  0.61803084  0.22346147     0.18100
C1909       C  0.64741085  0.61701671  0.21939997     0.15400
C1910       C  0.66657774  0.65391174  0.21743901    -0.19100
C1911       C  0.66501068  0.57914064  0.21674416    -0.20900
C1912       C  0.64511155  0.54252626  0.21726899    -0.13500
C1913       C  0.60762157  0.54334807  0.22069669     0.03200
C1914       C  0.59007745  0.58097542  0.22411931    -0.25600
H1915       H  0.59804657  0.72208275  0.22601298     0.08300
H1916       H  0.56365442  0.65747912  0.22931020     0.11900
H1917       H  0.69528723  0.65301701  0.21401393     0.11800
H1918       H  0.69385099  0.57795016  0.21366262     0.11500
H1919       H  0.65863689  0.51366471  0.21433777     0.12100
H1920       H  0.56087412  0.58144345  0.22645590     0.14000
C1921       C  0.61402416  0.89009559  0.22597237    -0.06000
C1922       C  0.59142460  0.91452215  0.21570915    -0.05900
C1923       C  0.56633598  0.94219199  0.22324117    -0.24100
C1924       C  0.56398005  0.94652957  0.24116044     0.18100
C1925       C  0.58638978  0.92165517  0.25143842     0.15400
C1926       C  0.61053188  0.89350757  0.24386314    -0.19100
C1927       C  0.58505018  0.92570190  0.26924159    -0.20900
C1928       C  0.56148417  0.95386397  0.27695032    -0.13500
C1929       C  0.53846175  0.97874010  0.26710917     0.03200
C1930       C  0.53997176  0.97514163  0.24907957    -0.25600
H1931       H  0.59364100  0.91282577  0.20191709     0.08300
H1932       H  0.54938945  0.96082769  0.21505939     0.11900
H1933       H  0.62781619  0.87532243  0.25209074     0.11800
H1934       H  0.60228909  0.90697202  0.27726717     0.11500
H1935       H  0.56105619  0.95585819  0.29078179     0.12100
H1936       H  0.52214017  0.99380301  0.24131706     0.14000
C1937       C  0.86181984  0.63132343  0.27258467    -0.06000
C1938       C  0.83741572  0.65458700  0.28257635    -0.05900
C1939       C  0.81241378  0.68105682  0.27484871    -0.24100
C1940       C  0.81233519  0.68581811  0.25702764     0.18100
C1941       C  0.83665508  0.66233756  0.24684963     0.15400
C1942       C  0.86068476  0.63461730  0.25466579    -0.19100
C1943       C  0.83736250  0.66801462  0.22909550    -0.20900
C1944       C  0.81419713  0.69668371  0.22147815    -0.13500
C1945       C  0.78962169  0.72003169  0.23143395     0.03200
C1946       C  0.78885827  0.71421865  0.24926246    -0.25600
H1947       H  0.83828534  0.65293302  0.29638961     0.08300
H1948       H  0.79399464  0.69886644  0.28285559     0.11900
H1949       H  0.88014960  0.61759077  0.24689062     0.11800
H1950       H  0.85597195  0.65042163  0.22110038     0.11500
H1951       H  0.81515265  0.70012614  0.20773336     0.12100
H1952       H  0.76998888  0.73179646  0.25713581     0.14000
C1953       C  0.93970429  0.89539455  0.17959546    -0.06000
C1954       C  0.91625040  0.92907579  0.17712280    -0.05900
C1955       C  0.87859424  0.92323865  0.17529374    -0.24100
C1956       C  0.86365139  0.88354681  0.17572573     0.18100
C1957       C  0.88725034  0.84927116  0.17685262     0.15400
C1958       C  0.92508112  0.85538600  0.17885317    -0.19100
C1959       C  0.87240094  0.80953012  0.17688387    -0.20900
C1960       C  0.83455332  0.80387687  0.17698285    -0.13500
C1961       C  0.81074290  0.83783190  0.17722513     0.03200
C1962       C  0.82553893  0.87765812  0.17600790    -0.25600
H1963       H  0.92673950  0.96023901  0.17759452     0.08300
H1964       H  0.86104035  0.94988792  0.17422733     0.11900
H1965       H  0.94288444  0.82914452  0.18057295     0.11800
H1966       H  0.89002072  0.78285063  0.17756784     0.11500
H1967       H  0.82397546  0.77286982  0.17800935     0.12100
H1968       H  0.80750100  0.90407777  0.17613635     0.14000
C1969       C  0.64401978  0.56581426  0.04224961    -0.06000
C1970       C  0.62532454  0.57796294  0.05713610    -0.05900
C1971       C  0.60952845  0.61682387  0.05844208    -0.24100
C1972       C  0.61250015  0.64454884  0.04495054     0.18100
C1973       C  0.63047950  0.63262726  0.02970276     0.15400
C1974       C  0.64592143  0.59302293  0.02836760    -0.19100
C1975       C  0.63321942  0.66089754  0.01628845    -0.20900
C1976       C  0.61813164  0.70044749  0.01799189    -0.13500
C1977       C  0.60043102  0.71247586  0.03319997     0.03200
C1978       C  0.59789173  0.68413488  0.04660622    -0.25600
H1979       H  0.62363878  0.55762273  0.06797536     0.08300
H1980       H  0.59564905  0.62552623  0.07017812     0.11900
H1981       H  0.66079488  0.58414768  0.01691811     0.11800
H1982       H  0.64691799  0.65239790  0.00448623     0.11500
H1983       H  0.62016599  0.72151333  0.00741878     0.12100
H1984       H  0.58394910  0.69259100  0.05836444     0.14000
C1985       C  0.51193886  0.95186147  0.01368700    -0.06000
C1986       C  0.48010790  0.97155125  0.01954165    -0.05900
C1987       C  0.47079944  0.01046778  0.01368453    -0.24100
C1988       C  0.49345264  0.03059580  0.00202651     0.18100
C1989       C  0.52540553  0.01090483  0.99587953     0.15400
C1990       C  0.53434732  0.97145679  0.00167967    -0.19100
C1991       C  0.54775569  0.03106372  0.98404583    -0.20900
C1992       C  0.53765391  0.06953054  0.97781692    -0.13500
C1993       C  0.50568383  0.08886933  0.98371290     0.03200
C1994       C  0.48417973  0.06970776  0.99613124    -0.25600
H1995       H  0.46277934  0.95707271  0.02896214     0.08300
H1996       H  0.44613164  0.02503013  0.01843853     0.11900
H1997       H  0.55938990  0.95677344  0.99742028     0.11800
H1998       H  0.57238738  0.01655436  0.97922718     0.11500
H1999       H  0.55419760  0.08368974  0.96801436     0.12100
H2000       H  0.45895488  0.08404996  0.00036917     0.14000
C2001       C  0.59183140  0.83481899  0.09661910    -0.06000
C2002       C  0.60802435  0.87147438  0.10267733    -0.05900
C2003       C  0.62631836  0.87286935  0.11825818    -0.24100
C2004       C  0.62934243  0.83748197  0.12812189     0.18100
C2005       C  0.61305497  0.80032846  0.12240397     0.15400
C2006       C  0.59391180  0.79928239  0.10671632    -0.19100
C2007       C  0.61686886  0.76493571  0.13238355    -0.20900
C2008       C  0.63710047  0.76628659  0.14763370    -0.13500
C2009       C  0.65353785  0.80316160  0.15329724     0.03200
C2010       C  0.64901845  0.83872878  0.14348456    -0.25600
H2011       H  0.60647980  0.89945261  0.09533545     0.08300
H2012       H  0.63854737  0.90161455  0.12248733     0.11900
H2013       H  0.58155037  0.77085495  0.10220291     0.11800
H2014       H  0.60462895  0.73610296  0.12829075     0.11500
H2015       H  0.63996176  0.73845424  0.15497217     0.12100
H2016       H  0.66149599  0.86743978  0.14761028     0.14000
C2017       C  0.71338148  0.99962692  0.98119516    -0.06000
C2018       C  0.69553989  0.96874839  0.97160231    -0.05900
C2019       C  0.67468073  0.93871976  0.97964701    -0.24100
C2020       C  0.67103037  0.93902762  0.99746019     0.18100
C2021       C  0.68809571  0.97035374  0.00728792     0.15400
C2022       C  0.70926603  0.00041873  0.99910155    -0.19100
C2023       C  0.68333155  0.97120135  0.02509878    -0.20900
C2024       C  0.66075132  0.94223668  0.03297180    -0.13500
C2025       C  0.64362939  0.91116852  0.02323984     0.03200
C2026       C  0.64963034  0.90920054  0.00552805    -0.25600
H2027       H  0.69829423  0.96724150  0.95782475     0.08300
H2028       H  0.66147087  0.91515496  0.97191927     0.11900
H2029       H  0.72298234  0.02390461  0.00668059     0.11800
H2030       H  0.69606897  0.99503176  0.03285632     0.11500
H2031       H  0.65580662  0.94474277  0.04659776     0.12100
H2032       H  0.63556744  0.88611891  0.99785804     0.14000
C2033       C  0.39532805  0.65356407  0.97469742    -0.06000
C2034       C  0.42152664  0.63198516  0.98422098    -0.05900
C2035       C  0.44688972  0.65293370  0.99446961    -0.24100
C2036       C  0.44665662  0.69599660  0.99545890     0.18100
C2037       C  0.42209799  0.71821452  0.98513021     0.15400
C2038       C  0.39669819  0.69689395  0.97475525    -0.19100
C2039       C  0.42252973  0.76138166  0.98585199    -0.20900
C2040       C  0.44653983  0.78223599  0.99688662    -0.13500
C2041       C  0.46994320  0.76038735  0.00771327     0.03200
C2042       C  0.47007250  0.71716664  0.00682761    -0.25600
H2043       H  0.42123626  0.59868011  0.98445165     0.08300
H2044       H  0.46584356  0.63536687  0.00209643     0.11900
H2045       H  0.37659377  0.71404439  0.96760874     0.11800
H2046       H  0.40413931  0.77902574  0.97796473     0.11500
H2047       H  0.44644343  0.81555809  0.99717554     0.12100
H2048       H  0.48873802  0.70010241  0.01481733     0.14000
C2049       C  0.44423533  0.87235065  0.07115050    -0.06000
C2050       C  0.44006585  0.91440314  0.07515382    -0.05900
C2051       C  0.40536009  0.93161446  0.07695550    -0.24100
C2052       C  0.37421986  0.90705207  0.07481843     0.18100
C2053       C  0.37813603  0.86417621  0.07211311     0.15400
C2054       C  0.41312459  0.84706162  0.07034452    -0.19100
C2055       C  0.34695893  0.83953557  0.07020549    -0.20900
C2056       C  0.31238537  0.85753432  0.06979223    -0.13500
C2057       C  0.30843987  0.90046530  0.07120462     0.03200
C2058       C  0.33939131  0.92494397  0.07434199    -0.25600
H2059       H  0.46358936  0.93456721  0.07594459     0.08300
H2060       H  0.40288736  0.96443669  0.07924509     0.11900
H2061       H  0.41600974  0.81453481  0.06742963     0.11800
H2062       H  0.34939713  0.80658678  0.06827797     0.11500
H2063       H  0.28890992  0.83802016  0.06735585     0.12100
H2064       H  0.33655488  0.95804375  0.07558833     0.14000
C2065       C  0.85291261  0.29873792  0.29176268    -0.06000
C2066       C  0.87278225  0.30779015  0.30669206    -0.05900
C2067       C  0.89153307  0.34477369  0.30846393    -0.24100
C2068       C  0.89047529  0.37364817  0.29538895     0.18100
C2069       C  0.87148225  0.36466070  0.28005418     0.15400
C2070       C  0.85298107  0.32685410  0.27824335    -0.19100
C2071       C  0.87078550  0.39408137  0.26705614    -0.20900
C2072       C  0.88857345  0.43198394  0.26932216    -0.13500
C2073       C  0.90698503  0.44110371  0.28467360     0.03200
C2074       C  0.90785974  0.41158200  0.29758952    -0.25600
H2075       H  0.87321993  0.28640911  0.31720855     0.08300
H2076       H  0.90620340  0.35115952  0.32022959     0.11900
H2077       H  0.83742998  0.32014951  0.26675539     0.11800
H2078       H  0.85642913  0.38784856  0.25519956     0.11500
H2079       H  0.88779090  0.45419888  0.25912845     0.12100
H2080       H  0.92240678  0.41793025  0.30940268     0.14000
C2081       C  0.74968351  0.91828645  0.23930553    -0.06000
C2082       C  0.75869398  0.91452004  0.25664944    -0.05900
C2083       C  0.76642312  0.94959445  0.26661572    -0.24100
C2084       C  0.76513935  0.98895264  0.25938926     0.18100
C2085       C  0.75748731  0.99288904  0.24181463     0.15400
C2086       C  0.75013019  0.95766706  0.23191466    -0.19100
C2087       C  0.75659044  0.03206574  0.23446877    -0.20900
C2088       C  0.76324329  0.06718870  0.24446845    -0.13500
C2089       C  0.77032916  0.06376148  0.26200799     0.03200
C2090       C  0.77119295  0.02445078  0.26940974    -0.25600
H2091       H  0.75841188  0.88468458  0.26265097     0.08300
H2092       H  0.77256018  0.94602177  0.28006008     0.11900
H2093       H  0.74348361  0.96119654  0.21851029     0.11800
H2094       H  0.75080202  0.03552946  0.22098276     0.11500
H2095       H  0.76278195  0.09707521  0.23850373     0.12100
H2096       H  0.77734547  0.02142207  0.28288946     0.14000
C2097       C  0.71373719  0.25256662  0.26433089    -0.06000
C2098       C  0.68535040  0.22986886  0.25669979    -0.05900
C2099       C  0.66073138  0.24873752  0.24559392    -0.24100
C2100       C  0.66473903  0.29043590  0.24153459     0.18100
C2101       C  0.69361860  0.31339690  0.24899347     0.15400
C2102       C  0.71765965  0.29444538  0.26051533    -0.19100
C2103       C  0.69783680  0.35496041  0.24484851    -0.20900
C2104       C  0.67279323  0.37408176  0.23406306    -0.13500
C2105       C  0.64325709  0.35199697  0.22701113     0.03200
C2106       C  0.63990996  0.30979285  0.23048378    -0.25600
H2107       H  0.68231649  0.19740567  0.25933573     0.08300
H2108       H  0.63878260  0.23061657  0.24005062     0.11900
H2109       H  0.74006003  0.31183398  0.26609785     0.11800
H2110       H  0.71988835  0.37300876  0.25034378     0.11500
H2111       H  0.67563587  0.40672989  0.23177229     0.12100
H2112       H  0.61673382  0.29269565  0.22548562     0.14000
C2113       C  0.55988925  0.10322500  0.32596267    -0.06000
C2114       C  0.56392788  0.14622288  0.32714822    -0.05900
C2115       C  0.59855287  0.16419079  0.32745698    -0.24100
C2116       C  0.62980231  0.13947818  0.32670664     0.18100
C2117       C  0.62612557  0.09616501  0.32690671     0.15400
C2118       C  0.59116733  0.07826791  0.32652654    -0.19100
C2119       C  0.65748217  0.07152166  0.32645642    -0.20900
C2120       C  0.69192493  0.08946569  0.32459513    -0.13500
C2121       C  0.69559235  0.13233948  0.32307489     0.03200
C2122       C  0.66447553  0.15729366  0.32479108    -0.25600
H2123       H  0.54031144  0.16620712  0.32672945     0.08300
H2124       H  0.60084309  0.19743044  0.32749781     0.11900
H2125       H  0.58838332  0.04509240  0.32572372     0.11800
H2126       H  0.65526750  0.03830205  0.32680891     0.11500
H2127       H  0.71549918  0.06954391  0.32341603     0.12100
H2128       H  0.66700848  0.19042350  0.32384061     0.14000
C2129       C  0.89834927  0.11605006  0.27439607    -0.06000
C2130       C  0.92204056  0.09268317  0.28444658    -0.05900
C2131       C  0.94710538  0.06583570  0.27673083    -0.24100
C2132       C  0.94760463  0.06070263  0.25888159     0.18100
C2133       C  0.92414882  0.08462060  0.24868331     0.15400
C2134       C  0.90039495  0.11294401  0.25649574    -0.19100
C2135       C  0.92352721  0.07836188  0.23091645    -0.20900
C2136       C  0.94560014  0.04824588  0.22331454    -0.13500
C2137       C  0.96905829  0.02426278  0.23330495     0.03200
C2138       C  0.97020998  0.03108172  0.25111174    -0.25600
H2139       H  0.92025679  0.09422700  0.29826103     0.08300
H2140       H  0.96484185  0.04767622  0.28474089     0.11900
H2141       H  0.88133442  0.13004389  0.24871404     0.11800
H2142       H  0.90557492  0.09632281  0.22293027     0.11500
H2143       H  0.94459726  0.04404276  0.20956837     0.12100
H2144       H  0.98828537  0.01293569  0.25897505     0.14000
C2145       C  0.88428271  0.31726258  0.46144231    -0.06000
C2146       C  0.86938552  0.32751184  0.44549205    -0.05900
C2147       C  0.85255526  0.36533737  0.44310772    -0.24100
C2148       C  0.85055660  0.39384947  0.45660292     0.18100
C2149       C  0.86416932  0.38347570  0.47290376     0.15400
C2150       C  0.88070718  0.34490468  0.47528951    -0.19100
C2151       C  0.86194930  0.41241559  0.48632697    -0.20900
C2152       C  0.84668223  0.45126447  0.48356502    -0.13500
C2153       C  0.83369913  0.46191602  0.46730146     0.03200
C2154       C  0.83561885  0.43281083  0.45391835    -0.25600
H2155       H  0.87188633  0.30666410  0.43463684     0.08300
H2156       H  0.84204763  0.37273799  0.43057088     0.11900
H2157       H  0.89260107  0.33744481  0.48754900     0.11800
H2158       H  0.87215476  0.40509294  0.49892072     0.11500
H2159       H  0.84511491  0.47300852  0.49413752     0.12100
H2160       H  0.82518969  0.44030376  0.44136877     0.14000
C2161       C  0.98602122  0.09440210  0.49363474    -0.06000
C2162       C  0.97778049  0.09345027  0.51118157    -0.05900
C2163       C  0.98396974  0.05783367  0.52061286    -0.24100
C2164       C  0.99801511  0.02239041  0.51259108     0.18100
C2165       C  0.00753785  0.02356531  0.49509462     0.15400
C2166       C  0.00199831  0.05961582  0.48582512    -0.19100
C2167       C  0.02141472  0.98826613  0.48698302    -0.20900
C2168       C  0.02551811  0.95192039  0.49606550    -0.13500
C2169       C  0.01588990  0.95010960  0.51345180     0.03200
C2170       C  0.00227104  0.98567708  0.52167413    -0.25600
H2171       H  0.96545497  0.11980999  0.51750291     0.08300
H2172       H  0.97675186  0.05762706  0.53404616     0.11900
H2173       H  0.00843968  0.05978088  0.47229479     0.11800
H2174       H  0.02892122  0.98868896  0.47358301     0.11500
H2175       H  0.03659268  0.92523352  0.48946862     0.12100
H2176       H  0.99532955  0.98494579  0.53514044     0.14000
C2177       C  0.83853332  0.17550316  0.35042879    -0.06000
C2178       C  0.84472449  0.13703720  0.35784360    -0.05900
C2179       C  0.86220046  0.13403091  0.37358234    -0.24100
C2180       C  0.87475853  0.16945278  0.38204620     0.18100
C2181       C  0.86877025  0.20853695  0.37476701     0.15400
C2182       C  0.84992971  0.21143650  0.35909550    -0.19100
C2183       C  0.88259466  0.24371731  0.38311269    -0.20900
C2184       C  0.90255200  0.24006911  0.39829764    -0.13500
C2185       C  0.90834463  0.20130443  0.40560299     0.03200
C2186       C  0.89389214  0.16618855  0.39749688    -0.25600
H2187       H  0.83595387  0.10906278  0.35137637     0.08300
H2188       H  0.86658741  0.10387684  0.37895703     0.11900
H2189       H  0.84551503  0.24117896  0.35333673     0.11800
H2190       H  0.87841231  0.27395096  0.37778648     0.11500
H2191       H  0.91308905  0.26763570  0.40446604     0.12100
H2192       H  0.89832366  0.13615855  0.40300609     0.14000
C2193       C  0.02240085  0.28432891  0.49314144    -0.06000
C2194       C  0.03840239  0.26485277  0.50721693    -0.05900
C2195       C  0.06352092  0.28567123  0.51759268    -0.24100
C2196       C  0.07279184  0.32660819  0.51423907     0.18100
C2197       C  0.05646875  0.34679712  0.50028549     0.15400
C2198       C  0.03161254  0.32542834  0.48972078    -0.19100
C2199       C  0.06557931  0.38787864  0.49706914    -0.20900
C2200       C  0.09147089  0.40830791  0.50721567    -0.13500
C2201       C  0.10880654  0.38808046  0.52078518     0.03200
C2202       C  0.09870923  0.34733607  0.52439478    -0.25600
H2203       H  0.03179262  0.23319602  0.51009770     0.08300
H2204       H  0.07577143  0.26969074  0.52821839     0.11900
H2205       H  0.01918740  0.34085017  0.47898594     0.11800
H2206       H  0.05325423  0.40395637  0.48648881     0.11500
H2207       H  0.09888513  0.43954683  0.50402358     0.12100
H2208       H  0.11198152  0.33117124  0.53470844     0.14000
C2209       C  0.05981973  0.17268650  0.43447302    -0.06000
C2210       C  0.08639630  0.20355276  0.43271894    -0.05900
C2211       C  0.12309087  0.19327469  0.43068146    -0.24100
C2212       C  0.13386137  0.15197167  0.43070448     0.18100
C2213       C  0.10723974  0.12060381  0.43196616     0.15400
C2214       C  0.07028773  0.13115584  0.43358319    -0.19100
C2215       C  0.11821807  0.07935992  0.43248820    -0.20900
C2216       C  0.15530677  0.06946847  0.43273651    -0.13500
C2217       C  0.18194539  0.10064065  0.43220840     0.03200
C2218       C  0.17094827  0.14173383  0.43050626    -0.25600
H2219       H  0.07888626  0.23575304  0.43333395     0.08300
H2220       H  0.14316894  0.21766789  0.42974246     0.11900
H2221       H  0.05000057  0.10715359  0.43513703     0.11800
H2222       H  0.09819419  0.05491826  0.43345025     0.11500
H2223       H  0.16310662  0.03754579  0.43407520     0.12100
H2224       H  0.19120039  0.16608488  0.43022341     0.14000
C2225       C  0.85482276  0.12205346  0.47694594    -0.06000
C2226       C  0.84800715  0.08294979  0.46971314    -0.05900
C2227       C  0.82548341  0.05471959  0.47803233    -0.24100
C2228       C  0.80989265  0.06476688  0.49391904     0.18100
C2229       C  0.81573474  0.10440132  0.50105917     0.15400
C2230       C  0.83757867  0.13296610  0.49240813    -0.19100
C2231       C  0.80083064  0.11431243  0.51707342    -0.20900
C2232       C  0.78073325  0.08514393  0.52605586    -0.13500
C2233       C  0.77480671  0.04549287  0.51917560     0.03200
C2234       C  0.78926073  0.03564108  0.50295809    -0.25600
H2235       H  0.86123019  0.07360361  0.45790304     0.08300
H2236       H  0.82131901  0.02453593  0.47232824     0.11900
H2237       H  0.84310033  0.16268395  0.49830543     0.11800
H2238       H  0.80503976  0.14452033  0.52275096     0.11500
H2239       H  0.76951893  0.09386396  0.53838965     0.12100
H2240       H  0.78471747  0.00532211  0.49743361     0.14000
loop_ 
_geom_bond_atom_site_label_1 
_geom_bond_atom_site_label_2 
_geom_bond_distance 
_geom_bond_site_symmetry_2 
_ccdc_geom_bond_type 
O1           C16   1.263       .  A
O1           Al9   1.901       .  S
C2           O12   1.258       .  A
C2            O3   1.264   1_455  A
C2         C2209   1.472       .  S
O3           Al5   1.924       .  S
O4            C6   1.262       .  A
O4           Al5   1.886       .  S
Al5          O13   1.894       .  S
Al5          O15   1.914       .  S
Al5          O14   1.779       .  S
C6           O19   1.268       .  A
C6         C2161   1.480       .  S
O7           C17   1.257       .  A
O7           Al9   1.885       .  S
O8           C21   1.255       .  A
O8          Al18   1.857       .  S
Al9          O22   1.953       .  S
Al9          O19   1.933       .  S
Al9          O14   1.781       .  S
O10          C17   1.264       .  A
O10         Al18   1.933       .  S
O11          C20   1.265       .  A
O11         Al18   1.926       .  S
O12         Al18   1.877   1_455  S
O13          C20   1.262       .  A
O14         Al18   1.780       .  S
O15          C16   1.263       .  A
C16        C2225   1.482       .  S
C17        C2193   1.480   1_655  S
C20        C2185   1.479       .  S
C21          O22   1.270       .  A
C21        C2145   1.473       .  S
O23          C38   1.260       .  A
O23         Al31   1.891       .  S
C24          O34   1.264       .  A
C24          O25   1.267       .  A
C24        C2121   1.479       .  S
O25         Al27   1.924       .  S
O26          C28   1.258       .  A
O26         Al27   1.880       .  S
Al27         O35   1.878       .  S
Al27         O37   1.911       .  S
Al27         O36   1.778       .  S
C28          O41   1.266       .  A
C28        C2089   1.477       .  S
O29          C39   1.255       .  A
O29         Al31   1.889       .  S
O30          C43   1.259       .  A
O30         Al40   1.866       .  S
Al31         O44   1.951       .  S
Al31         O41   1.928       .  S
Al31         O36   1.782       .  S
O32          C39   1.265       .  A
O32         Al40   1.949       .  S
O33          C42   1.265       .  A
O33         Al40   1.944       .  S
O34         Al40   1.891       .  S
O35          C42   1.256       .  A
O36         Al40   1.785       .  S
O37          C38   1.262       .  A
C38        C2129   1.469       .  S
C39        C2097   1.476       .  S
C42        C2177   1.476       .  S
C43          O44   1.271       .  A
C43        C2065   1.472       .  S
O45          C60   1.271       .  A
O45         Al53   1.954       .  S
C46          O56   1.262       .  A
C46          O47   1.262       .  A
C46        C2049   1.478       .  S
O47         Al49   1.898       .  S
O48          C50   1.268       .  A
O48         Al49   1.948       .  S
Al49         O57   1.961       .  S
Al49         O59   1.873       .  S
Al49         O58   1.778       .  S
C50          O63   1.259       .  A
C50        C2041   1.482       .  S
O51          C61   1.269       .  A
O51         Al53   1.948       .  S
O52          C65   1.262       .  A
O52         Al62   1.916       .  S
Al53         O66   1.898       .  S
Al53         O63   1.894       .  S
Al53         O58   1.781       .  S
O54          C61   1.258       .  A
O54         Al62   1.875       .  S
O55          C64   1.260       .  A
O55         Al62   1.872       .  S
O56         Al62   1.917       .  S
O57          C64   1.272       .  A
O58         Al62   1.774       .  S
O59          C60   1.260       .  A
C60        C1977   1.485       .  S
C61        C1985   1.471       .  S
C64        C2001   1.485       .  S
C65          O66   1.262       .  A
C65        C2025   1.474       .  S
O67          C82   1.264       .  A
O67         Al75   1.917       .  S
C68          O78   1.261       .  A
C68          O69   1.263       .  A
C68        C1961   1.484       .  S
O69         Al71   1.913       .  S
O70          C72   1.261       .  A
O70         Al71   1.905       .  S
Al71         O79   1.912       .  S
Al71         O81   1.891       .  S
Al71         O80   1.794       .  S
C72          O85   1.261       .  A
C72        C1945   1.487       .  S
O73          C83   1.266       .  A
O73         Al75   1.927       .  S
O74          C87   1.268       .  A
O74         Al84   1.932       .  S
Al75         O88   1.896       .  S
Al75         O85   1.911       .  S
Al75         O80   1.789       .  S
O76          C83   1.257       .  A
O76         Al84   1.883       .  S
O77          C86   1.260       .  A
O77         Al84   1.906       .  S
O78         Al84   1.903       .  S
O79          C86   1.260       .  A
O80         Al84   1.794       .  S
O81          C82   1.260       .  A
C82        C1905   1.474       .  S
C83        C2081   1.483       .  S
C86        C2009   1.488       .  S
C87          O88   1.262       .  A
C87        C1921   1.492       .  S
O89         C104   1.260       .  A
O89         Al97   1.896       .  S
C90         O100   1.262       .  A
C90          O91   1.265       .  A
C90        C1881   1.471       .  S
O91         Al93   1.921       .  S
O92          C94   1.259       .  A
O92         Al93   1.878       .  S
Al93        O101   1.887       .  S
Al93        O103   1.923       .  S
Al93        O102   1.780       .  S
C94         O107   1.266       .  A
C94        C1833   1.475       .  S
O95         C105   1.260       .  A
O95         Al97   1.903       .  S
O96         C109   1.261       .  A
O96        Al106   1.874       .  S
Al97        O110   1.922       .  S
Al97        O107   1.925       .  S
Al97        O102   1.778       .  S
O98         C105   1.265       .  A
O98        Al106   1.934       .  S
O99         C108   1.265       .  A
O99        Al106   1.930       .  S
O100       Al106   1.883       .  S
O101        C108   1.261       .  A
O102       Al106   1.781       .  S
O103        C104   1.264       .  A
C104       C1889   1.483       .  S
C105       C1857   1.481       .  S
C108       C1841   1.477       .  S
C109        O110   1.267       .  A
C109       C1809   1.468       .  S
O111        C126   1.263       .  A
O111       Al119   1.907       .  S
C112        O122   1.260       .  A
C112        O113   1.260       .  A
C112       C1777   1.479       .  S
O113       Al115   1.909       .  S
O114        C116   1.257       .  A
O114       Al115   1.880       .  S
Al115       O123   1.871       .  S
Al115       O125   1.913       .  S
Al115       O124   1.781       .  S
C116        O129   1.267       .  A
C116       C1993   1.468       .  S
O117        C127   1.264       .  A
O117       Al119   1.911       .  S
O118        C131   1.264       .  A
O118       Al128   1.891       .  S
Al119       O132   1.922       .  S
Al119       O129   1.933       .  S
Al119       O124   1.783       .  S
O120        C127   1.264       .  A
O120       Al128   1.918       .  S
O121        C130   1.269       .  A
O121       Al128   1.945       .  S
O122       Al128   1.905       .  S
O123        C130   1.258       .  A
O124       Al128   1.781       .  S
O125        C126   1.261       .  A
C126       C1793   1.480       .  S
C127       C1761   1.490       .  S
C130       C1849   1.469       .  S
C131        O132   1.266       .  A
C131       C1745   1.479       .  S
O133        C148   1.266       .  A
O133       Al141   1.940       .  S
C134        O144   1.267       .  A
C134        O135   1.256       .  A
C134       C1737   1.479       .  S
O135       Al137   1.871       .  S
O136        C138   1.270       .  A
O136       Al137   1.940       .  S
Al137       O145   1.934       .  S
Al137       O147   1.874       .  S
Al137       O146   1.774       .  S
C138        O151   1.262       .  A
C138       C1721   1.481       .  S
O139        C149   1.265       .  A
O139       Al141   1.938       .  S
O140        C153   1.270       .  A
O140       Al150   1.942       .  S
Al141       O154   1.883       .  S
Al141       O151   1.886       .  S
Al141       O146   1.783       .  S
O142        C149   1.255       .  A
O142       Al150   1.874       .  S
O143        C152   1.257       .  A
O143       Al150   1.877       .  S
O144       Al150   1.932       .  S
O145        C152   1.266       .  A
O146       Al150   1.774       .  S
O147        C148   1.257       .  A
C148       C1665   1.471       .  S
C149       C1825   1.477       .  S
C152       C1689   1.479       .  S
C153        O154   1.263       .  A
C153       C1697   1.481       .  S
O155        C170   1.263       .  A
O155       Al163   1.928       .  S
C156        O166   1.266       .  A
C156        O157   1.258       .  A
C156       C1649   1.478       .  S
O157       Al159   1.875   1_655  S
O158        C160   1.263       .  A
O158       Al159   1.909   1_655  S
Al159       O167   1.910       .  S
Al159       O169   1.876       .  S
Al159       O168   1.781       .  S
C160        O173   1.261   1_655  A
C160       C1633   1.475       .  S
O161        C171   1.262       .  A
O161       Al163   1.910       .  S
O162        C175   1.267       .  A
O162       Al172   1.923       .  S
Al163       O176   1.888       .  S
Al163       O173   1.899       .  S
Al163       O168   1.787       .  S
O164        C171   1.261       .  A
O164       Al172   1.898       .  S
O165        C174   1.260       .  A
O165       Al172   1.898       .  S
O166       Al172   1.929   1_655  S
O167        C174   1.260       .  A
O168       Al172   1.786       .  S
O169        C170   1.258       .  A
C170       C1609   1.474       .  S
C171       C2169   1.480       .  S
C174       C1681   1.479       .  S
C175        O176   1.262       .  A
C175       C1617   1.479       .  S
O177        C192   1.270       .  A
O177       Al185   1.936   1_545  S
C178        O188   1.264       .  A
C178        O179   1.262       .  A
C178       C2057   1.476       .  S
O179       Al181   1.895       .  S
O180        C182   1.261       .  A
O180       Al181   1.911   1_545  S
Al181       O189   1.916       .  S
Al181       O191   1.875   1_565  S
Al181       O190   1.777       .  S
C182        O195   1.260   1_545  A
C182       C1801   1.487       .  S
O183        C193   1.269       .  A
O183       Al185   1.939       .  S
O184        C197   1.262       .  A
O184       Al194   1.918       .  S
Al185       O198   1.900       .  S
Al185       O195   1.908       .  S
Al185       O190   1.784       .  S
O186        C193   1.259       .  A
O186       Al194   1.866       .  S
O187        C196   1.263       .  A
O187       Al194   1.899       .  S
O188       Al194   1.921       .  S
O189        C196   1.264       .  A
O190       Al194   1.778       .  S
O191        C192   1.260       .  A
C192       C1537   1.470       .  S
C193       C1561   1.476       .  S
C196       C1569   1.473       .  S
C197        O198   1.260       .  A
C197       C1585   1.486       .  S
O199        C214   1.263   1_565  A
O199       Al207   1.913       .  S
C200        O210   1.261       .  A
C200        O201   1.261       .  A
C200       C1953   1.485       .  S
O201       Al203   1.912   1_655  S
O202        C204   1.261       .  A
O202       Al203   1.898   1_655  S
Al203       O211   1.910       .  S
Al203       O213   1.890   1_565  S
Al203       O212   1.793       .  S
C204        O217   1.260   1_655  A
C204       C2137   1.480   1_565  S
O205        C215   1.266       .  A
O205       Al207   1.933       .  S
O206        C219   1.267       .  A
O206       Al216   1.930       .  S
Al207       O220   1.891       .  S
Al207       O217   1.903       .  S
Al207       O212   1.797       .  S
O208        C215   1.255       .  A
O208       Al216   1.854       .  S
O209        C218   1.257       .  A
O209       Al216   1.890       .  S
O210       Al216   1.906   1_655  S
O211        C218   1.261       .  A
O212       Al216   1.788       .  S
O213        C214   1.259       .  A
C214       C1489   1.468       .  S
C215       C1513   1.479       .  S
C218       C1577   1.481       .  S
C219        O220   1.260       .  A
C219       C1521   1.485       .  S
O221        C236   1.260       .  A
O221       Al229   1.893       .  S
C222        O232   1.261       .  A
C222        O223   1.267   1_455  A
C222       C1473   1.480       .  S
O223       Al225   1.928       .  S
O224        C226   1.256       .  A
O224       Al225   1.878       .  S
Al225       O233   1.889       .  S
Al225       O235   1.916       .  S
Al225       O234   1.790       .  S
C226        O239   1.265       .  A
C226       C1505   1.472       .  S
O227        C237   1.259       .  A
O227       Al229   1.910   1_455  S
O228        C241   1.263       .  A
O228       Al238   1.877       .  S
Al229       O242   1.931       .  S
Al229       O239   1.909       .  S
Al229       O234   1.792       .  S
O230        C237   1.259       .  A
O230       Al238   1.898   1_455  S
O231        C240   1.259       .  A
O231       Al238   1.916       .  S
O232       Al238   1.887   1_455  S
O233        C240   1.257       .  A
O234       Al238   1.786       .  S
O235        C236   1.263       .  A
C236       C1937   1.477       .  S
C237       C1457   1.481       .  S
C240       C1449   1.471       .  S
C241        O242   1.268       .  A
C241       C2073   1.477       .  S
O243        C258   1.260       .  A
O243       Al251   1.886       .  S
C244        O254   1.260       .  A
C244        O245   1.262       .  A
C244       C1425   1.473       .  S
O245       Al247   1.915       .  S
O246        C248   1.258       .  A
O246       Al247   1.881       .  S
Al247       O255   1.879       .  S
Al247       O257   1.917       .  S
Al247       O256   1.778       .  S
C248        O261   1.270       .  A
C248       C1393   1.478       .  S
O249        C259   1.262       .  A
O249       Al251   1.899       .  S
O250        C263   1.263       .  A
O250       Al260   1.883       .  S
Al251       O264   1.934       .  S
Al251       O261   1.952       .  S
Al251       O256   1.781       .  S
O252        C259   1.264       .  A
O252       Al260   1.915       .  S
O253        C262   1.268       .  A
O253       Al260   1.941       .  S
O254       Al260   1.887       .  S
O255        C262   1.259       .  A
O256       Al260   1.778       .  S
O257        C258   1.263       .  A
C258       C1641   1.475       .  S
C259       C1409   1.476       .  S
C262       C1441   1.478       .  S
C263        O264   1.268       .  A
C263       C2153   1.479       .  S
O265        C280   1.264   1_565  A
O265       Al273   1.932       .  S
C266        O276   1.271       .  A
C266        O267   1.256       .  A
C266       C1729   1.480       .  S
O267       Al269   1.855       .  S
O268        C270   1.272       .  A
O268       Al269   1.958       .  S
Al269       O277   1.928       .  S
Al269       O279   1.862       .  S
Al269       O278   1.768       .  S
C270        O283   1.261       .  A
C270       C1897   1.477   1_565  S
O271        C281   1.263       .  A
O271       Al273   1.928       .  S
O272        C285   1.274       .  A
O272       Al282   1.954       .  S
Al273       O286   1.884       .  S
Al273       O283   1.882       .  S
Al273       O278   1.777       .  S
O274        C281   1.257       .  A
O274       Al282   1.876       .  S
O275        C284   1.257       .  A
O275       Al282   1.878       .  S
O276       Al282   1.951       .  S
O277        C284   1.265       .  A
O278       Al282   1.772       .  S
O279        C280   1.254   1_565  A
C280       C1337   1.456       .  S
C281       C1345   1.472       .  S
C284       C1369   1.475       .  S
C285        O286   1.262       .  A
C285       C1385   1.480       .  S
O287        C302   1.270       .  A
O287       Al295   1.956   1_545  S
C288        O298   1.269       .  A
C288        O289   1.259       .  A
C288       C1657   1.478       .  S
O289       Al291   1.874       .  S
O290        C292   1.266       .  A
O290       Al291   1.926   1_545  S
Al291       O299   1.918       .  S
Al291       O301   1.869   1_565  S
Al291       O300   1.771       .  S
C292        O305   1.264   1_545  A
C292       C2233   1.483       .  S
O293        C303   1.271       .  A
O293       Al295   1.958       .  S
O294        C307   1.270       .  A
O294       Al304   1.951       .  S
Al295       O308   1.880       .  S
Al295       O305   1.903       .  S
Al295       O300   1.776       .  S
O296        C303   1.256       .  A
O296       Al304   1.875       .  S
O297        C306   1.259       .  A
O297       Al304   1.889       .  S
O298       Al304   1.938       .  S
O299        C306   1.264       .  A
O300       Al304   1.776       .  S
O301        C302   1.258       .  A
C302       C1297   1.472       .  S
C303       C1401   1.481       .  S
C306       C1361   1.471       .  S
C307        O308   1.260       .  A
C307       C1313   1.483       .  S
O309        C324   1.261       .  A
O309       Al317   1.889       .  S
C310        O320   1.260       .  A
C310        O311   1.266       .  A
C310       C1281   1.479       .  S
O311       Al313   1.928       .  S
O312        C314   1.257       .  A
O312       Al313   1.873       .  S
Al313       O321   1.875       .  S
Al313       O323   1.923       .  S
Al313       O322   1.775       .  S
C314        O327   1.265       .  A
C314       C1353   1.473       .  S
O315        C325   1.261       .  A
O315       Al317   1.895       .  S
O316        C329   1.257       .  A
O316       Al326   1.873       .  S
Al317       O330   1.928       .  S
Al317       O327   1.925       .  S
Al317       O322   1.785       .  S
O318        C325   1.268       .  A
O318       Al326   1.935       .  S
O319        C328   1.265       .  A
O319       Al326   1.931       .  S
O320       Al326   1.883       .  S
O321        C328   1.256       .  A
O322       Al326   1.776       .  S
O323        C324   1.265       .  A
C324       C1713   1.473       .  S
C325       C1265   1.486       .  S
C328       C1249   1.473       .  S
C329        O330   1.267       .  A
C329       C1817   1.462       .  S
O331        C346   1.260       .  A
O331       Al339   1.887       .  S
C332        O342   1.259       .  A
C332        O333   1.271       .  A
C332       C1233   1.477       .  S
O333       Al335   1.949       .  S
O334        C336   1.258       .  A
O334       Al335   1.874       .  S
Al335       O343   1.890       .  S
Al335       O345   1.955       .  S
Al335       O344   1.777       .  S
C336        O349   1.269       .  A
C336       C1553   1.475       .  S
O337        C347   1.257       .  A
O337       Al339   1.887       .  S
O338        C351   1.254       .  A
O338       Al348   1.855       .  S
Al339       O352   1.961       .  S
Al339       O349   1.937       .  S
Al339       O344   1.774       .  S
O340        C347   1.265       .  A
O340       Al348   1.929       .  S
O341        C350   1.263       .  A
O341       Al348   1.916       .  S
O342       Al348   1.867       .  S
O343        C350   1.261       .  A
O344       Al348   1.772       .  S
O345        C346   1.270       .  A
C346       C2033   1.489       .  S
C347       C1225   1.472       .  S
C350       C1257   1.470       .  S
C351        O352   1.270       .  A
C351       C1753   1.470       .  S
O353        C368   1.266       .  A
O353       Al361   1.935       .  S
C354        O364   1.263       .  A
C354        O355   1.261       .  A
C354       C1209   1.484       .  S
O355       Al357   1.901       .  S
O356        C358   1.266       .  A
O356       Al357   1.925       .  S
Al357       O365   1.941       .  S
Al357       O367   1.886       .  S
Al357       O366   1.777       .  S
C358        O371   1.261       .  A
C358       C1185   1.485       .  S
O359        C369   1.263       .  A
O359       Al361   1.916       .  S
O360        C373   1.265       .  A
O360       Al370   1.922       .  S
Al361       O374   1.909       .  S
Al361       O371   1.899       .  S
Al361       O366   1.792       .  S
O362        C369   1.257       .  A
O362       Al370   1.874       .  S
O363        C372   1.259       .  A
O363       Al370   1.878       .  S
O364       Al370   1.921       .  S
O365        C372   1.267       .  A
O366       Al370   1.777       .  S
O367        C368   1.261       .  A
C368       C1969   1.477       .  S
C369       C1153   1.468       .  S
C372       C1169   1.479       .  S
C373        O374   1.266       .  A
C373       C1769   1.483       .  S
O375        C390   1.266       .  A
O375       Al383   1.943       .  S
C376        O386   1.270       .  A
C376        O377   1.258       .  A
C376       C1145   1.484       .  S
O377       Al379   1.867       .  S
O378        C380   1.266       .  A
O378       Al379   1.927       .  S
Al379       O387   1.919       .  S
Al379       O389   1.877       .  S
Al379       O388   1.774       .  S
C380        O393   1.261       .  A
C380       C1121   1.473       .  S
O381        C391   1.266       .  A
O381       Al383   1.939       .  S
O382        C395   1.273       .  A
O382       Al392   1.964       .  S
Al383       O396   1.879       .  S
Al383       O393   1.891       .  S
Al383       O388   1.776       .  S
O384        C391   1.256       .  A
O384       Al392   1.881       .  S
O385        C394   1.262       .  A
O385       Al392   1.903       .  S
O386       Al392   1.950       .  S
O387        C394   1.264       .  A
O388       Al392   1.780       .  S
O389        C390   1.257       .  A
C390       C1913   1.461       .  S
C391       C1105   1.474       .  S
C394       C1177   1.482       .  S
C395        O396   1.259       .  A
C395       C2105   1.481       .  S
O397        C412   1.262       .  A
O397       Al405   1.890       .  S
C398        O408   1.260       .  A
C398        O399   1.267       .  A
C398       C2217   1.474       .  S
O399       Al401   1.923       .  S
O400        C402   1.259       .  A
O400       Al401   1.888       .  S
Al401       O409   1.890       .  S
Al401       O411   1.911       .  S
Al401       O410   1.776       .  S
C402        O415   1.264       .  A
C402       C1057   1.481       .  S
O403        C413   1.261       .  A
O403       Al405   1.897       .  S
O404        C417   1.259       .  A
O404       Al414   1.869       .  S
Al405       O418   1.943       .  S
Al405       O415   1.923       .  S
Al405       O410   1.784       .  S
O406        C413   1.264       .  A
O406       Al414   1.925       .  S
O407        C416   1.262       .  A
O407       Al414   1.924       .  S
O408       Al414   1.877       .  S
O409        C416   1.258       .  A
O410       Al414   1.780       .  S
O411        C412   1.263       .  A
C412       C1097   1.465       .  S
C413       C1625   1.481   1_545  S
C416       C1073   1.479       .  S
C417        O418   1.269       .  A
C417       C1041   1.467   1_545  S
O419        C434   1.260       .  A
O419       Al427   1.897       .  S
C420        O430   1.261       .  A
C420        O421   1.261       .  A
C420       C2113   1.480       .  S
O421       Al423   1.915       .  S
O422        C424   1.259       .  A
O422       Al423   1.877       .  S
Al423       O431   1.888       .  S
Al423       O433   1.910       .  S
Al423       O432   1.787       .  S
C424        O437   1.269       .  A
C424       C1113   1.471       .  S
O425        C435   1.261       .  A
O425       Al427   1.918       .  S
O426        C439   1.263       .  A
O426       Al436   1.881   1_565  S
Al427       O440   1.929       .  S
Al427       O437   1.937       .  S
Al427       O432   1.792       .  S
O428        C435   1.261   1_565  A
O428       Al436   1.902   1_565  S
O429        C438   1.266       .  A
O429       Al436   1.933       .  S
O430       Al436   1.903       .  S
O431        C438   1.261       .  A
O432       Al436   1.781       .  S
O433        C434   1.259       .  A
C434       C1025   1.476       .  S
C435       C1929   1.489   1_545  S
C438       C1081   1.477       .  S
C439        O440   1.268   1_565  A
C439       C1017   1.479       .  S
O441        C456   1.264       .  A
O441       Al449   1.899       .  S
C442        O452   1.258       .  A
C442        O443   1.264       .  A
C442        C993   1.481       .  S
O443       Al445   1.920   1_655  S
O444        C446   1.258       .  A
O444       Al445   1.900   1_655  S
Al445       O453   1.911       .  S
Al445       O455   1.899       .  S
Al445       O454   1.794       .  S
C446        O459   1.256   1_655  A
C446        C977   1.484       .  S
O447        C457   1.263       .  A
O447       Al449   1.910       .  S
O448        C461   1.265       .  A
O448       Al458   1.918       .  S
Al449       O462   1.896       .  S
Al449       O459   1.902       .  S
Al449       O454   1.797       .  S
O450        C457   1.257       .  A
O450       Al458   1.874       .  S
O451        C460   1.256       .  A
O451       Al458   1.891       .  S
O452       Al458   1.882   1_655  S
O453        C460   1.258       .  A
O454       Al458   1.798       .  S
O455        C456   1.264       .  A
C456       C1673   1.477       .  S
C457        C945   1.466       .  S
C460        C969   1.478       .  S
C461        O462   1.260       .  A
C461       C1865   1.477       .  S
O463        C478   1.269       .  A
O463       Al471   1.942       .  S
C464        O474   1.269       .  A
C464        O465   1.262       .  A
C464        C929   1.479       .  S
O465       Al467   1.877       .  S
O466        C468   1.261       .  A
O466       Al467   1.909       .  S
Al467       O475   1.915       .  S
Al467       O477   1.869       .  S
Al467       O476   1.776       .  S
C468        O481   1.262       .  A
C468        C913   1.485       .  S
O469        C479   1.268       .  A
O469       Al471   1.935       .  S
O470        C483   1.265       .  A
O470       Al480   1.923       .  S
Al471       O484   1.891       .  S
Al471       O481   1.911       .  S
Al471       O476   1.785       .  S
O472        C479   1.259       .  A
O472       Al480   1.880       .  S
O473        C482   1.261       .  A
O473       Al480   1.906       .  S
O474       Al480   1.938       .  S
O475        C482   1.261       .  A
O476       Al480   1.779       .  S
O477        C478   1.260       .  A
C478       C1601   1.467       .  S
C479       C1065   1.483       .  S
C482        C961   1.483       .  S
C483        O484   1.260       .  A
C483       C2201   1.484       .  S
O485        C500   1.259       .  A
O485       Al493   1.893       .  S
C486        O496   1.261       .  A
C486        O487   1.264   1_455  A
C486       C1873   1.474       .  S
O487       Al489   1.919       .  S
O488        C490   1.259       .  A
O488       Al489   1.868       .  S
Al489       O497   1.863       .  S
Al489       O499   1.914       .  S
Al489       O498   1.773       .  S
C490        O503   1.268       .  A
C490        C953   1.471       .  S
O491        C501   1.256       .  A
O491       Al493   1.885       .  S
O492        C505   1.255       .  A
O492       Al502   1.856   1_565  S
Al493       O506   1.948       .  S
Al493       O503   1.935       .  S
Al493       O498   1.778       .  S
O494        C501   1.265   1_565  A
O494       Al502   1.931   1_565  S
O495        C504   1.266       .  A
O495       Al502   1.928       .  S
O496       Al502   1.888   1_455  S
O497        C504   1.257       .  A
O498       Al502   1.777       .  S
O499        C500   1.261       .  A
C500        C897   1.463       .  S
C501       C1705   1.471   1_645  S
C504        C881   1.462       .  S
C505        O506   1.270   1_565  A
C505        C873   1.469       .  S
O507        C522   1.261       .  A
O507       Al515   1.913       .  S
C508        O518   1.261       .  A
C508        O509   1.262       .  A
C508       C1785   1.476       .  S
O509       Al511   1.920       .  S
O510        C512   1.258       .  A
O510       Al511   1.861       .  S
Al511       O519   1.878       .  S
Al511       O521   1.917       .  S
Al511       O520   1.777       .  S
C512        O525   1.268       .  A
C512       C1161   1.467       .  S
O513        C523   1.261       .  A
O513       Al515   1.899       .  S
O514        C527   1.259       .  A
O514       Al524   1.871       .  S
Al515       O528   1.928       .  S
Al515       O525   1.932       .  S
Al515       O520   1.784       .  S
O516        C523   1.263       .  A
O516       Al524   1.912       .  S
O517        C526   1.265       .  A
O517       Al524   1.916       .  S
O518       Al524   1.892       .  S
O519        C526   1.260       .  A
O520       Al524   1.773       .  S
O521        C522   1.261       .  A
C522        C849   1.470       .  S
C523       C2017   1.482   1_545  S
C526        C889   1.458       .  S
C527        O528   1.267       .  A
C527        C833   1.470   1_545  S
O529        C544   1.262       .  A
O529       Al537   1.892       .  S
C530        O540   1.257       .  A
C530        O531   1.268   1_455  A
C530       C1241   1.476       .  S
O531       Al533   1.936       .  S
O532        C534   1.258       .  A
O532       Al533   1.882       .  S
Al533       O541   1.879       .  S
Al533       O543   1.928       .  S
Al533       O542   1.781       .  S
C534        O547   1.265       .  A
C534        C809   1.474       .  S
O535        C545   1.259   1_655  A
O535       Al537   1.893       .  S
O536        C549   1.256       .  A
O536       Al546   1.860       .  S
Al537       O550   1.947       .  S
Al537       O547   1.923       .  S
Al537       O542   1.781       .  S
O538        C545   1.266   1_655  A
O538       Al546   1.936       .  S
O539        C548   1.263       .  A
O539       Al546   1.926       .  S
O540       Al546   1.868   1_455  S
O541        C548   1.257       .  A
O542       Al546   1.781       .  S
O543        C544   1.266       .  A
C544       C1193   1.480       .  S
C545       C1593   1.481       .  S
C548        C825   1.476       .  S
C549        O550   1.268       .  A
C549        C841   1.477       .  S
O551        C566   1.265       .  A
O551       Al559   1.889       .  S
C552        O562   1.257       .  A
C552        O553   1.267       .  A
C552       C1289   1.482       .  S
O553       Al555   1.935       .  S
O554        C556   1.255       .  A
O554       Al555   1.881       .  S
Al555       O563   1.869       .  S
Al555       O565   1.938       .  S
Al555       O564   1.781       .  S
C556        O569   1.257       .  A
C556        C793   1.464       .  S
O557        C567   1.259       .  A
O557       Al559   1.883       .  S
O558        C571   1.258       .  A
O558       Al568   1.880       .  S
Al559       O572   1.921       .  S
Al559       O569   1.898       .  S
Al559       O564   1.781       .  S
O560        C567   1.269       .  A
O560       Al568   1.948       .  S
O561        C570   1.264       .  A
O561       Al568   1.932       .  S
O562       Al568   1.868       .  S
O563        C570   1.255       .  A
O564       Al568   1.783       .  S
O565        C566   1.270       .  A
C566        C985   1.473       .  S
C567       C1377   1.470       .  S
C570        C817   1.477       .  S
C571        O572   1.262       .  A
C571        C865   1.473       .  S
O573        C588   1.263       .  A
O573       Al581   1.885       .  S
C574        O584   1.258   1_655  A
C574        O575   1.266       .  A
C574       C1201   1.482       .  S
O575       Al577   1.927   1_655  S
O576        C578   1.258       .  A
O576       Al577   1.910   1_655  S
Al577       O585   1.912       .  S
Al577       O587   1.916       .  S
Al577       O586   1.792       .  S
C578        O591   1.255   1_655  A
C578        C857   1.479       .  S
O579        C589   1.267       .  A
O579       Al581   1.922       .  S
O580        C593   1.261       .  A
O580       Al590   1.904       .  S
Al581       O594   1.892       .  S
Al581       O591   1.898       .  S
Al581       O586   1.793       .  S
O582        C589   1.260       .  A
O582       Al590   1.888       .  S
O583        C592   1.256       .  A
O583       Al590   1.885       .  S
O584       Al590   1.874       .  S
O585        C592   1.258       .  A
O586       Al590   1.790       .  S
O587        C588   1.267       .  A
C588       C1545   1.474       .  S
C589        C801   1.477       .  S
C592        C777   1.483       .  S
C593        O594   1.258       .  A
C593       C1217   1.465       .  S
O595        C610   1.264       .  A
O595       Al603   1.913       .  S
C596        O606   1.258       .  A
C596        O597   1.260       .  A
C596       C1137   1.483       .  S
O597       Al599   1.911       .  S
O598        C600   1.260       .  A
O598       Al599   1.897       .  S
Al599       O607   1.907       .  S
Al599       O609   1.895       .  S
Al599       O608   1.795       .  S
C600        O613   1.260       .  A
C600       C1033   1.480       .  S
O601        C611   1.266       .  A
O601       Al603   1.917       .  S
O602        C615   1.265       .  A
O602       Al612   1.925       .  S
Al603       O616   1.887       .  S
Al603       O613   1.912       .  S
Al603       O608   1.789       .  S
O604        C611   1.258       .  A
O604       Al612   1.878       .  S
O605        C614   1.261       .  A
O605       Al612   1.900       .  S
O606       Al612   1.892       .  S
O607        C614   1.260       .  A
O608       Al612   1.791       .  S
O609        C610   1.260       .  A
C610       C1497   1.467       .  S
C611        C753   1.474       .  S
C614        C769   1.484       .  S
C615        O616   1.259       .  A
C615       C1465   1.487       .  S
O617        C632   1.261       .  A
O617       Al625   1.899       .  S
C618        O628   1.260       .  A
C618        O619   1.265       .  A
C618       C1481   1.482       .  S
O619       Al621   1.928       .  S
O620        C622   1.259       .  A
O620       Al621   1.873       .  S
Al621       O629   1.880       .  S
Al621       O631   1.912       .  S
Al621       O630   1.779       .  S
C622        O635   1.270       .  A
C622        C761   1.478       .  S
O623        C633   1.261       .  A
O623       Al625   1.901       .  S
O624        C637   1.257       .  A
O624       Al634   1.869       .  S
Al625       O638   1.943       .  S
Al625       O635   1.944       .  S
Al625       O630   1.787       .  S
O626        C633   1.265       .  A
O626       Al634   1.917       .  S
O627        C636   1.265       .  A
O627       Al634   1.930       .  S
O628       Al634   1.888       .  S
O629        C636   1.259       .  A
O630       Al634   1.776       .  S
O631        C632   1.262       .  A
C632       C1129   1.480       .  S
C633       C1529   1.482       .  S
C636        C737   1.475       .  S
C637        O638   1.268       .  A
C637       C1009   1.472       .  S
O639        C654   1.263       .  A
O639       Al647   1.906       .  S
C640        O650   1.261       .  A
C640        O641   1.262       .  A
C640       C1433   1.474       .  S
O641       Al643   1.911       .  S
O642        C644   1.260       .  A
O642       Al643   1.886       .  S
Al643       O651   1.877       .  S
Al643       O653   1.901       .  S
Al643       O652   1.784       .  S
C644        O657   1.263       .  A
C644        C721   1.463       .  S
O645        C655   1.256       .  A
O645       Al647   1.893       .  S
O646        C659   1.260       .  A
O646       Al656   1.872       .  S
Al647       O660   1.928       .  S
Al647       O657   1.899       .  S
Al647       O652   1.782       .  S
O648        C655   1.263       .  A
O648       Al656   1.929       .  S
O649        C658   1.265       .  A
O649       Al656   1.935       .  S
O650       Al656   1.893       .  S
O651        C658   1.259       .  A
O652       Al656   1.786       .  S
O653        C654   1.259       .  A
C654        C921   1.479       .  S
C655       C1321   1.475       .  S
C658        C745   1.469       .  S
C659        O660   1.266       .  A
C659       C1049   1.474       .  S
O661        C676   1.263       .  A
O661       Al669   1.890       .  S
C662        O672   1.259       .  A
C662        O663   1.262       .  A
C662       C1001   1.481       .  S
O663       Al665   1.912       .  S
O664        C666   1.257       .  A
O664       Al665   1.891       .  S
Al665       O673   1.898       .  S
Al665       O675   1.889       .  S
Al665       O674   1.786       .  S
C666        O679   1.257       .  A
C666        C905   1.479       .  S
O667        C677   1.264       .  A
O667       Al669   1.901       .  S
O668        C681   1.264       .  A
O668       Al678   1.921       .  S
Al669       O682   1.897       .  S
Al669       O679   1.908       .  S
Al669       O674   1.795       .  S
O670        C677   1.262       .  A
O670       Al678   1.883       .  S
O671        C680   1.259       .  A
O671       Al678   1.892       .  S
O672       Al678   1.887       .  S
O673        C680   1.257       .  A
O674       Al678   1.786       .  S
O675        C676   1.264       .  A
C676       C1329   1.465       .  S
C677        C785   1.464       .  S
C680        C713   1.478       .  S
C681        O682   1.259       .  A
C681       C1273   1.487       .  S
O683        C698   1.265       .  A
O683       Al691   1.906       .  S
C684        O694   1.258       .  A
C684        O685   1.262       .  A
C684        C937   1.477       .  S
O685       Al687   1.915       .  S
O686        C688   1.258       .  A
O686       Al687   1.898       .  S
Al687       O695   1.908       .  S
Al687       O697   1.896       .  S
Al687       O696   1.794       .  S
C688        O701   1.258       .  A
C688       C1089   1.477       .  S
O689        C699   1.265       .  A
O689       Al691   1.915       .  S
O690        C703   1.262       .  A
O690       Al700   1.910       .  S
Al691       O704   1.900       .  S
Al691       O701   1.896       .  S
Al691       O696   1.795       .  S
O692        C699   1.258       .  A
O692       Al700   1.874       .  S
O693        C702   1.256       .  A
O693       Al700   1.881       .  S
O694       Al700   1.880       .  S
O695        C702   1.259       .  A
O696       Al700   1.787       .  S
O697        C698   1.264       .  A
C698       C1305   1.479       .  S
C699        C729   1.473       .  S
C702        C705   1.479       .  S
C703        O704   1.261       .  A
C703       C1417   1.482       .  S
C705        C706   1.407       .  A
C705        C710   1.409       .  A
C706        C707   1.388       .  A
C706        H715   1.083       .  S
C707        C708   1.396       .  A
C707        H716   1.084       .  S
C708        C714   1.396       .  A
C708        C709   1.413       .  A
C709        C711   1.405       .  A
C709        C710   1.409       .  A
C710        H717   1.084       .  S
C711        C712   1.403       .  A
C711        H718   1.083       .  S
C712        C713   1.407       .  A
C712        H719   1.083       .  S
C713        C714   1.402       .  A
C714        H720   1.085       .  S
C721        C722   1.402       .  A
C721        C726   1.406       .  A
C722        C723   1.389       .  A
C722        H731   1.084       .  S
C723        C724   1.399       .  A
C723        H732   1.084       .  S
C724        C730   1.391       .  A
C724        C725   1.412       .  A
C725        C727   1.406       .  A
C725        C726   1.402       .  A
C726        H733   1.084       .  S
C727        C728   1.402       .  A
C727        H734   1.083       .  S
C728        C729   1.403       .  A
C728        H735   1.083       .  S
C729        C730   1.405       .  A
C730        H736   1.085       .  S
C737        C738   1.404       .  A
C737        C742   1.409       .  A
C738        C739   1.391       .  A
C738        H747   1.083       .  S
C739        C740   1.398       .  A
C739        H748   1.084       .  S
C740        C746   1.396       .  A
C740        C741   1.414       .  A
C741        C743   1.407       .  A
C741        C742   1.408       .  A
C742        H749   1.084       .  S
C743        C744   1.404       .  A
C743        H750   1.083       .  S
C744        C745   1.403       .  A
C744        H751   1.083       .  S
C745        C746   1.400       .  A
C746        H752   1.085       .  S
C753        C754   1.402       .  A
C753        C758   1.408       .  A
C754        C755   1.399       .  A
C754        H763   1.083       .  S
C755        C756   1.405       .  A
C755        H764   1.083       .  S
C756        C762   1.401       .  A
C756        C757   1.410       .  A
C757        C759   1.403       .  A
C757        C758   1.399       .  A
C758        H765   1.085       .  S
C759        C760   1.397       .  A
C759        H766   1.084       .  S
C760        C761   1.403       .  A
C760        H767   1.083       .  S
C761        C762   1.411       .  A
C762        H768   1.084       .  S
C769        C770   1.407       .  A
C769        C774   1.405       .  A
C770        C771   1.404       .  A
C770        H779   1.083       .  S
C771        C772   1.406       .  A
C771        H780   1.083       .  S
C772        C778   1.411       .  A
C772        C773   1.414       .  A
C773        C775   1.397       .  A
C773        C774   1.399       .  A
C774        H781   1.084       .  S
C775        C776   1.391       .  A
C775        H782   1.084       .  S
C776        C777   1.407       .  A
C776        H783   1.083       .  S
C777        C778   1.410       .  A
C778        H784   1.084       .  S
C785        C786   1.402       .  A
C785        C790   1.403       .  A
C786        C787   1.397       .  A
C786        H795   1.083       .  S
C787        C788   1.404       .  A
C787        H796   1.083       .  S
C788        C794   1.398       .  A
C788        C789   1.412       .  A
C789        C791   1.400       .  A
C789        C790   1.392       .  A
C790        H797   1.085       .  S
C791        C792   1.391       .  A
C791        H798   1.084       .  S
C792        C793   1.403       .  A
C792        H799   1.083       .  S
C793        C794   1.405       .  A
C794        H800   1.084       .  S
C801        C802   1.403   1_554  A
C801        C806   1.408       .  A
C802        C803   1.403       .  A
C802        H811   1.083       .  S
C803        C804   1.407   1_455  A
C803        H812   1.083   1_455  S
C804        C810   1.405       .  A
C804        C805   1.412   1_656  A
C805        C807   1.402       .  A
C805        C806   1.397       .  A
C806        H813   1.085       .  S
C807        C808   1.395   1_455  A
C807        H814   1.084       .  S
C808        C809   1.402   1_554  A
C808        H815   1.083       .  S
C809        C810   1.409       .  A
C810        H816   1.084       .  S
C817        C818   1.406       .  A
C817        C822   1.407       .  A
C818        C819   1.392       .  A
C818        H827   1.083       .  S
C819        C820   1.398       .  A
C819        H828   1.084       .  S
C820        C826   1.399       .  A
C820        C821   1.414       .  A
C821        C823   1.405       .  A
C821        C822   1.409       .  A
C822        H829   1.084       .  S
C823        C824   1.402       .  A
C823        H830   1.083       .  S
C824        C825   1.405       .  A
C824        H831   1.083       .  S
C825        C826   1.402       .  A
C826        H832   1.085       .  S
C833        C834   1.404       .  A
C833        C838   1.407       .  A
C834        C835   1.390       .  A
C834        H843   1.084       .  S
C835        C836   1.399       .  A
C835        H844   1.084       .  S
C836        C842   1.394       .  A
C836        C837   1.412       .  A
C837        C839   1.405       .  A
C837        C838   1.404       .  A
C838        H845   1.084       .  S
C839        C840   1.402       .  A
C839        H846   1.083       .  S
C840        C841   1.404       .  A
C840        H847   1.083       .  S
C841        C842   1.406       .  A
C842        H848   1.085       .  S
C849        C850   1.400       .  A
C849        C854   1.405       .  A
C850        C851   1.404       .  A
C850        H859   1.083       .  S
C851        C852   1.408       .  A
C851        H860   1.083       .  S
C852        C858   1.406   1_556  A
C852        C853   1.412   1_556  A
C853        C855   1.404       .  A
C853        C854   1.402   1_554  A
C854        H861   1.084       .  S
C855        C856   1.399       .  A
C855        H862   1.084       .  S
C856        C857   1.402       .  A
C856        H863   1.083       .  S
C857        C858   1.411       .  A
C858        H864   1.084       .  S
C865        C866   1.406       .  A
C865        C870   1.402       .  A
C866        C867   1.398       .  A
C866        H875   1.083       .  S
C867        C868   1.402       .  A
C867        H876   1.083       .  S
C868        C874   1.405       .  A
C868        C869   1.415       .  A
C869        C871   1.398       .  A
C869        C870   1.396       .  A
C870        H877   1.085       .  S
C871        C872   1.390       .  A
C871        H878   1.084       .  S
C872        C873   1.406       .  A
C872        H879   1.084       .  S
C873        C874   1.403       .  A
C874        H880   1.084       .  S
C881        C882   1.402       .  A
C881        C886   1.401       .  A
C882        C883   1.398       .  A
C882        H891   1.083   1_545  S
C883        C884   1.404       .  A
C883        H892   1.084   1_545  S
C884        C890   1.400       .  A
C884        C885   1.415       .  A
C885        C887   1.400       .  A
C885        C886   1.393       .  A
C886        H893   1.085       .  S
C887        C888   1.391       .  A
C887        H894   1.084       .  S
C888        C889   1.401       .  A
C888        H895   1.084       .  S
C889        C890   1.402       .  A
C890        H896   1.085       .  S
C897        C898   1.401       .  A
C897        C902   1.401       .  A
C898        C899   1.402       .  A
C898        H907   1.083       .  S
C899        C900   1.407       .  A
C899        H908   1.083       .  S
C900        C906   1.406       .  A
C900        C901   1.413       .  A
C901        C903   1.400       .  A
C901        C902   1.398       .  A
C902        H909   1.085       .  S
C903        C904   1.393       .  A
C903        H910   1.084       .  S
C904        C905   1.405       .  A
C904        H911   1.083       .  S
C905        C906   1.410       .  A
C906        H912   1.084       .  S
C913        C914   1.408       .  A
C913        C918   1.408       .  A
C914        C915   1.395       .  A
C914        H923   1.083       .  S
C915        C916   1.399       .  A
C915        H924   1.084       .  S
C916        C922   1.405       .  A
C916        C917   1.415       .  A
C917        C919   1.403       .  A
C917        C918   1.409       .  A
C918        H925   1.084       .  S
C919        C920   1.400       .  A
C919        H926   1.083       .  S
C920        C921   1.407       .  A
C920        H927   1.083       .  S
C921        C922   1.405       .  A
C922        H928   1.084       .  S
C929        C930   1.406       .  A
C929        C934   1.406       .  A
C930        C931   1.400       .  A
C930        H939   1.083       .  S
C931        C932   1.404       .  A
C931        H940   1.084       .  S
C932        C938   1.405       .  A
C932        C933   1.413       .  A
C933        C935   1.401       .  A
C933        C934   1.400       .  A
C934        H941   1.084       .  S
C935        C936   1.395       .  A
C935        H942   1.084       .  S
C936        C937   1.405       .  A
C936        H943   1.083       .  S
C937        C938   1.407       .  A
C938        H944   1.084       .  S
C945        C946   1.400       .  A
C945        C950   1.406   1_455  A
C946        C947   1.397   1_455  A
C946        H955   1.083       .  S
C947        C948   1.404       .  A
C947        H956   1.084   1_655  S
C948        C954   1.396       .  A
C948        C949   1.411       .  A
C949        C951   1.403       .  A
C949        C950   1.396       .  A
C950        H957   1.085       .  S
C951        C952   1.396       .  A
C951        H958   1.084       .  S
C952        C953   1.403       .  A
C952        H959   1.083       .  S
C953        C954   1.407       .  A
C954        H960   1.084       .  S
C961        C962   1.408       .  A
C961        C966   1.404       .  A
C962        C963   1.399       .  A
C962        H971   1.083       .  S
C963        C964   1.402       .  A
C963        H972   1.084       .  S
C964        C970   1.409       .  A
C964        C965   1.416       .  A
C965        C967   1.399       .  A
C965        C966   1.405       .  A
C966        H973   1.084       .  S
C967        C968   1.395       .  A
C967        H974   1.084       .  S
C968        C969   1.406       .  A
C968        H975   1.083       .  S
C969        C970   1.405       .  A
C970        H976   1.084       .  S
C977        C978   1.405       .  A
C977        C982   1.411       .  A
C978        C979   1.396       .  A
C978        H987   1.083       .  S
C979        C980   1.401       .  A
C979        H988   1.084       .  S
C980        C986   1.402       .  A
C980        C981   1.413       .  A
C981        C983   1.407       .  A
C981        C982   1.408       .  A
C982        H989   1.084       .  S
C983        C984   1.403       .  A
C983        H990   1.083       .  S
C984        C985   1.402       .  A
C984        H991   1.083       .  S
C985        C986   1.404       .  A
C986        H992   1.085       .  S
C993        C994   1.407       .  A
C993        C998   1.406       .  A
C994        C995   1.398       .  A
C994       H1003   1.083       .  S
C995        C996   1.402       .  A
C995       H1004   1.084       .  S
C996       C1002   1.406       .  A
C996        C997   1.414       .  A
C997        C999   1.401       .  A
C997        C998   1.405       .  A
C998       H1005   1.084       .  S
C999       C1000   1.397       .  A
C999       H1006   1.084       .  S
C1000      C1001   1.406       .  A
C1000      H1007   1.083       .  S
C1001      C1002   1.407       .  A
C1002      H1008   1.084       .  S
C1009      C1010   1.405       .  A
C1009      C1014   1.406       .  A
C1010      C1011   1.392       .  A
C1010      H1019   1.084       .  S
C1011      C1012   1.399       .  A
C1011      H1020   1.084       .  S
C1012      C1018   1.399       .  A
C1012      C1013   1.414       .  A
C1013      C1015   1.404       .  A
C1013      C1014   1.407       .  A
C1014      H1021   1.084       .  S
C1015      C1016   1.401       .  A
C1015      H1022   1.083       .  S
C1016      C1017   1.406       .  A
C1016      H1023   1.083       .  S
C1017      C1018   1.405       .  A
C1018      H1024   1.084       .  S
C1025      C1026   1.405       .  A
C1025      C1030   1.405       .  A
C1026      C1027   1.401       .  A
C1026      H1035   1.083       .  S
C1027      C1028   1.405       .  A
C1027      H1036   1.083       .  S
C1028      C1034   1.406       .  A
C1028      C1029   1.413       .  A
C1029      C1031   1.401       .  A
C1029      C1030   1.403       .  A
C1030      H1037   1.085       .  S
C1031      C1032   1.396       .  A
C1031      H1038   1.084       .  S
C1032      C1033   1.405       .  A
C1032      H1039   1.083       .  S
C1033      C1034   1.409       .  A
C1034      H1040   1.084       .  S
C1041      C1042   1.404       .  A
C1041      C1046   1.405       .  A
C1042      C1043   1.390       .  A
C1042      H1051   1.084       .  S
C1043      C1044   1.399       .  A
C1043      H1052   1.084       .  S
C1044      C1050   1.395       .  A
C1044      C1045   1.414       .  A
C1045      C1047   1.404       .  A
C1045      C1046   1.404       .  A
C1046      H1053   1.084       .  S
C1047      C1048   1.400       .  A
C1047      H1054   1.083       .  S
C1048      C1049   1.405       .  A
C1048      H1055   1.083       .  S
C1049      C1050   1.404       .  A
C1050      H1056   1.085       .  S
C1057      C1058   1.406       .  A
C1057      C1062   1.409       .  A
C1058      C1059   1.398       .  A
C1058      H1067   1.083       .  S
C1059      C1060   1.403       .  A
C1059      H1068   1.084       .  S
C1060      C1066   1.403       .  A
C1060      C1061   1.412       .  A
C1061      C1063   1.403       .  A
C1061      C1062   1.404       .  A
C1062      H1069   1.084       .  S
C1063      C1064   1.399       .  A
C1063      H1070   1.084       .  S
C1064      C1065   1.405       .  A
C1064      H1071   1.083       .  S
C1065      C1066   1.410       .  A
C1066      H1072   1.084       .  S
C1073      C1074   1.405       .  A
C1073      C1078   1.408       .  A
C1074      C1075   1.396       .  A
C1074      H1083   1.083       .  S
C1075      C1076   1.401       .  A
C1075      H1084   1.084       .  S
C1076      C1082   1.403       .  A
C1076      C1077   1.414       .  A
C1077      C1079   1.405       .  A
C1077      C1078   1.408       .  A
C1078      H1085   1.084       .  S
C1079      C1080   1.401       .  A
C1079      H1086   1.084   1_545  S
C1080      C1081   1.404       .  A
C1080      H1087   1.083   1_545  S
C1081      C1082   1.404       .  A
C1082      H1088   1.085       .  S
C1089      C1090   1.405       .  A
C1089      C1094   1.407       .  A
C1090      C1091   1.398       .  A
C1090      H1099   1.083       .  S
C1091      C1092   1.403       .  A
C1091      H1100   1.084       .  S
C1092      C1098   1.402       .  A
C1092      C1093   1.413       .  A
C1093      C1095   1.403       .  A
C1093      C1094   1.401       .  A
C1094      H1101   1.084       .  S
C1095      C1096   1.397       .  A
C1095      H1102   1.084       .  S
C1096      C1097   1.400       .  A
C1096      H1103   1.083       .  S
C1097      C1098   1.405       .  A
C1098      H1104   1.085       .  S
C1105      C1106   1.406       .  A
C1105      C1110   1.403       .  A
C1106      C1107   1.398       .  A
C1106      H1115   1.083       .  S
C1107      C1108   1.402       .  A
C1107      H1116   1.084       .  S
C1108      C1114   1.404       .  A
C1108      C1109   1.415       .  A
C1109      C1111   1.401       .  A
C1109      C1110   1.402       .  A
C1110      H1117   1.085       .  S
C1111      C1112   1.395       .  A
C1111      H1118   1.084       .  S
C1112      C1113   1.404       .  A
C1112      H1119   1.084       .  S
C1113      C1114   1.405       .  A
C1114      H1120   1.085       .  S
C1121      C1122   1.404       .  A
C1121      C1126   1.405       .  A
C1122      C1123   1.397       .  A
C1122      H1131   1.083       .  S
C1123      C1124   1.403       .  A
C1123      H1132   1.084       .  S
C1124      C1130   1.401       .  A
C1124      C1125   1.413       .  A
C1125      C1127   1.402       .  A
C1125      C1126   1.402       .  A
C1126      H1133   1.085       .  S
C1127      C1128   1.398       .  A
C1127      H1134   1.084       .  S
C1128      C1129   1.406       .  A
C1128      H1135   1.083       .  S
C1129      C1130   1.408       .  A
C1130      H1136   1.084       .  S
C1137      C1138   1.408       .  A
C1137      C1142   1.405       .  A
C1138      C1139   1.400       .  A
C1138      H1147   1.083       .  S
C1139      C1140   1.402       .  A
C1139      H1148   1.083       .  S
C1140      C1146   1.410       .  A
C1140      C1141   1.415       .  A
C1141      C1143   1.399       .  A
C1141      C1142   1.404       .  A
C1142      H1149   1.084       .  S
C1143      C1144   1.394       .  A
C1143      H1150   1.084       .  S
C1144      C1145   1.408       .  A
C1144      H1151   1.083       .  S
C1145      C1146   1.407       .  A
C1146      H1152   1.084       .  S
C1153      C1154   1.404   1_554  A
C1153      C1158   1.406       .  A
C1154      C1155   1.393       .  A
C1154      H1163   1.083       .  S
C1155      C1156   1.401       .  A
C1155      H1164   1.084       .  S
C1156      C1162   1.393       .  A
C1156      C1157   1.411   1_556  A
C1157      C1159   1.402       .  A
C1157      C1158   1.395       .  A
C1158      H1165   1.084       .  S
C1159      C1160   1.394       .  A
C1159      H1166   1.084       .  S
C1160      C1161   1.403   1_554  A
C1160      H1167   1.083       .  S
C1161      C1162   1.406       .  A
C1162      H1168   1.085       .  S
C1169      C1170   1.406       .  A
C1169      C1174   1.405       .  A
C1170      C1171   1.396       .  A
C1170      H1179   1.083       .  S
C1171      C1172   1.400       .  A
C1171      H1180   1.084       .  S
C1172      C1178   1.406       .  A
C1172      C1173   1.416       .  A
C1173      C1175   1.402       .  A
C1173      C1174   1.409       .  A
C1174      H1181   1.084       .  S
C1175      C1176   1.400       .  A
C1175      H1182   1.084       .  S
C1176      C1177   1.407       .  A
C1176      H1183   1.083       .  S
C1177      C1178   1.405       .  A
C1178      H1184   1.084       .  S
C1185      C1186   1.406       .  A
C1185      C1190   1.411   1_554  A
C1186      C1187   1.395       .  A
C1186      H1195   1.083       .  S
C1187      C1188   1.400       .  A
C1187      H1196   1.084       .  S
C1188      C1194   1.402   1_554  A
C1188      C1189   1.413   1_554  A
C1189      C1191   1.405       .  A
C1189      C1190   1.409       .  A
C1190      H1197   1.084       .  S
C1191      C1192   1.402       .  A
C1191      H1198   1.083       .  S
C1192      C1193   1.406       .  A
C1192      H1199   1.083       .  S
C1193      C1194   1.406       .  A
C1194      H1200   1.085       .  S
C1201      C1202   1.408       .  A
C1201      C1206   1.406       .  A
C1202      C1203   1.396       .  A
C1202      H1211   1.083       .  S
C1203      C1204   1.400       .  A
C1203      H1212   1.084       .  S
C1204      C1210   1.405       .  A
C1204      C1205   1.414       .  A
C1205      C1207   1.401       .  A
C1205      C1206   1.405       .  A
C1206      H1213   1.084       .  S
C1207      C1208   1.397       .  A
C1207      H1214   1.084       .  S
C1208      C1209   1.407       .  A
C1208      H1215   1.083       .  S
C1209      C1210   1.407       .  A
C1210      H1216   1.084       .  S
C1217      C1218   1.404       .  A
C1217      C1222   1.403       .  A
C1218      C1219   1.395       .  A
C1218      H1227   1.084       .  S
C1219      C1220   1.401       .  A
C1219      H1228   1.084   1_554  S
C1220      C1226   1.400   1_554  A
C1220      C1221   1.415       .  A
C1221      C1223   1.402       .  A
C1221      C1222   1.403       .  A
C1222      H1229   1.085       .  S
C1223      C1224   1.397       .  A
C1223      H1230   1.084       .  S
C1224      C1225   1.404   1_554  A
C1224      H1231   1.083       .  S
C1225      C1226   1.403       .  A
C1226      H1232   1.085       .  S
C1233      C1234   1.407       .  A
C1233      C1238   1.404       .  A
C1234      C1235   1.394       .  A
C1234      H1243   1.083       .  S
C1235      C1236   1.399       .  A
C1235      H1244   1.084       .  S
C1236      C1242   1.403       .  A
C1236      C1237   1.416       .  A
C1237      C1239   1.400       .  A
C1237      C1238   1.405       .  A
C1238      H1245   1.084       .  S
C1239      C1240   1.396       .  A
C1239      H1246   1.084       .  S
C1240      C1241   1.407       .  A
C1240      H1247   1.083       .  S
C1241      C1242   1.403       .  A
C1242      H1248   1.084       .  S
C1249      C1250   1.405       .  A
C1249      C1254   1.405       .  A
C1250      C1251   1.393       .  A
C1250      H1259   1.083       .  S
C1251      C1252   1.399       .  A
C1251      H1260   1.084       .  S
C1252      C1258   1.400       .  A
C1252      C1253   1.416       .  A
C1253      C1255   1.403       .  A
C1253      C1254   1.405       .  A
C1254      H1261   1.084       .  S
C1255      C1256   1.398       .  A
C1255      H1262   1.084       .  S
C1256      C1257   1.405       .  A
C1256      H1263   1.083       .  S
C1257      C1258   1.400       .  A
C1258      H1264   1.085       .  S
C1265      C1266   1.405       .  A
C1265      C1270   1.413       .  A
C1266      C1267   1.395       .  A
C1266      H1275   1.083       .  S
C1267      C1268   1.401       .  A
C1267      H1276   1.084       .  S
C1268      C1274   1.401       .  A
C1268      C1269   1.411       .  A
C1269      C1271   1.407       .  A
C1269      C1270   1.410       .  A
C1270      H1277   1.084       .  S
C1271      C1272   1.405       .  A
C1271      H1278   1.083       .  S
C1272      C1273   1.406       .  A
C1272      H1279   1.083       .  S
C1273      C1274   1.409       .  A
C1274      H1280   1.084       .  S
C1281      C1282   1.406       .  A
C1281      C1286   1.405       .  A
C1282      C1283   1.397       .  A
C1282      H1291   1.083       .  S
C1283      C1284   1.401       .  A
C1283      H1292   1.084       .  S
C1284      C1290   1.406       .  A
C1284      C1285   1.415       .  A
C1285      C1287   1.399       .  A
C1285      C1286   1.403       .  A
C1286      H1293   1.084       .  S
C1287      C1288   1.394       .  A
C1287      H1294   1.084       .  S
C1288      C1289   1.409       .  A
C1288      H1295   1.083       .  S
C1289      C1290   1.406       .  A
C1290      H1296   1.084       .  S
C1297      C1298   1.405       .  A
C1297      C1302   1.407       .  A
C1298      C1299   1.391       .  A
C1298      H1307   1.084       .  S
C1299      C1300   1.399       .  A
C1299      H1308   1.084       .  S
C1300      C1306   1.397       .  A
C1300      C1301   1.414       .  A
C1301      C1303   1.405       .  A
C1301      C1302   1.408       .  A
C1302      H1309   1.084       .  S
C1303      C1304   1.402       .  A
C1303      H1310   1.083       .  S
C1304      C1305   1.406       .  A
C1304      H1311   1.083       .  S
C1305      C1306   1.405       .  A
C1306      H1312   1.084       .  S
C1313      C1314   1.407       .  A
C1313      C1318   1.409       .  A
C1314      C1315   1.394       .  A
C1314      H1323   1.083       .  S
C1315      C1316   1.399       .  A
C1315      H1324   1.084       .  S
C1316      C1322   1.403       .  A
C1316      C1317   1.415       .  A
C1317      C1319   1.404       .  A
C1317      C1318   1.410       .  A
C1318      H1325   1.084       .  S
C1319      C1320   1.402       .  A
C1319      H1326   1.083       .  S
C1320      C1321   1.405       .  A
C1320      H1327   1.083       .  S
C1321      C1322   1.402       .  A
C1322      H1328   1.085       .  S
C1329      C1330   1.404       .  A
C1329      C1334   1.401       .  A
C1330      C1331   1.398       .  A
C1330      H1339   1.083       .  S
C1331      C1332   1.404       .  A
C1331      H1340   1.084       .  S
C1332      C1338   1.399       .  A
C1332      C1333   1.414       .  A
C1333      C1335   1.398       .  A
C1333      C1334   1.389       .  A
C1334      H1341   1.085       .  S
C1335      C1336   1.387       .  A
C1335      H1342   1.084       .  S
C1336      C1337   1.402       .  A
C1336      H1343   1.084       .  S
C1337      C1338   1.403       .  A
C1338      H1344   1.085       .  S
C1345      C1346   1.404       .  A
C1345      C1350   1.406       .  A
C1346      C1347   1.396       .  A
C1346      H1355   1.083       .  S
C1347      C1348   1.403       .  A
C1347      H1356   1.084       .  S
C1348      C1354   1.399       .  A
C1348      C1349   1.412       .  A
C1349      C1351   1.402       .  A
C1349      C1350   1.397       .  A
C1350      H1357   1.084       .  S
C1351      C1352   1.395       .  A
C1351      H1358   1.084       .  S
C1352      C1353   1.404       .  A
C1352      H1359   1.083       .  S
C1353      C1354   1.408       .  A
C1354      H1360   1.084       .  S
C1361      C1362   1.404       .  A
C1361      C1366   1.403       .  A
C1362      C1363   1.397       .  A
C1362      H1371   1.083   1_565  S
C1363      C1364   1.402       .  A
C1363      H1372   1.084   1_565  S
C1364      C1370   1.404       .  A
C1364      C1365   1.415       .  A
C1365      C1367   1.401       .  A
C1365      C1366   1.403       .  A
C1366      H1373   1.085       .  S
C1367      C1368   1.396       .  A
C1367      H1374   1.084       .  S
C1368      C1369   1.406       .  A
C1368      H1375   1.083       .  S
C1369      C1370   1.404       .  A
C1370      H1376   1.084       .  S
C1377      C1378   1.403       .  A
C1377      C1382   1.404       .  A
C1378      C1379   1.395       .  A
C1378      H1387   1.084       .  S
C1379      C1380   1.401       .  A
C1379      H1388   1.084       .  S
C1380      C1386   1.403       .  A
C1380      C1381   1.415       .  A
C1381      C1383   1.402       .  A
C1381      C1382   1.406       .  A
C1382      H1389   1.085       .  S
C1383      C1384   1.399       .  A
C1383      H1390   1.084       .  S
C1384      C1385   1.408       .  A
C1384      H1391   1.083       .  S
C1385      C1386   1.405       .  A
C1386      H1392   1.084       .  S
C1393      C1394   1.406       .  A
C1393      C1398   1.405       .  A
C1394      C1395   1.398       .  A
C1394      H1403   1.084       .  S
C1395      C1396   1.402       .  A
C1395      H1404   1.084       .  S
C1396      C1402   1.407       .  A
C1396      C1397   1.415       .  A
C1397      C1399   1.401       .  A
C1397      C1398   1.406       .  A
C1398      H1405   1.085       .  S
C1399      C1400   1.397       .  A
C1399      H1406   1.084       .  S
C1400      C1401   1.408       .  A
C1400      H1407   1.084       .  S
C1401      C1402   1.406       .  A
C1402      H1408   1.084       .  S
C1409      C1410   1.403       .  A
C1409      C1414   1.409       .  A
C1410      C1411   1.394       .  A
C1410      H1419   1.083       .  S
C1411      C1412   1.401       .  A
C1411      H1420   1.084       .  S
C1412      C1418   1.399       .  A
C1412      C1413   1.412       .  A
C1413      C1415   1.406       .  A
C1413      C1414   1.408       .  A
C1414      H1421   1.084       .  S
C1415      C1416   1.403       .  A
C1415      H1422   1.083       .  S
C1416      C1417   1.405       .  A
C1416      H1423   1.083       .  S
C1417      C1418   1.409       .  A
C1418      H1424   1.084       .  S
C1425      C1426   1.406       .  A
C1425      C1430   1.404       .  A
C1426      C1427   1.394       .  A
C1426      H1435   1.083       .  S
C1427      C1428   1.400       .  A
C1427      H1436   1.084       .  S
C1428      C1434   1.401       .  A
C1428      C1429   1.415       .  A
C1429      C1431   1.400       .  A
C1429      C1430   1.401       .  A
C1430      H1437   1.084       .  S
C1431      C1432   1.395       .  A
C1431      H1438   1.084       .  S
C1432      C1433   1.407       .  A
C1432      H1439   1.083       .  S
C1433      C1434   1.403       .  A
C1434      H1440   1.084       .  S
C1441      C1442   1.406       .  A
C1441      C1446   1.408       .  A
C1442      C1443   1.392       .  A
C1442      H1451   1.083       .  S
C1443      C1444   1.398       .  A
C1443      H1452   1.084       .  S
C1444      C1450   1.400       .  A
C1444      C1445   1.416       .  A
C1445      C1447   1.405       .  A
C1445      C1446   1.409       .  A
C1446      H1453   1.084       .  S
C1447      C1448   1.402       .  A
C1447      H1454   1.083       .  S
C1448      C1449   1.404       .  A
C1448      H1455   1.083       .  S
C1449      C1450   1.400       .  A
C1450      H1456   1.085       .  S
C1457      C1458   1.405       .  A
C1457      C1462   1.412       .  A
C1458      C1459   1.390       .  A
C1458      H1467   1.083       .  S
C1459      C1460   1.399       .  A
C1459      H1468   1.084       .  S
C1460      C1466   1.397       .  A
C1460      C1461   1.412       .  A
C1461      C1463   1.409       .  A
C1461      C1462   1.413       .  A
C1462      H1469   1.084       .  S
C1463      C1464   1.408       .  A
C1463      H1470   1.083       .  S
C1464      C1465   1.406       .  A
C1464      H1471   1.083       .  S
C1465      C1466   1.408       .  A
C1466      H1472   1.084       .  S
C1473      C1474   1.406       .  A
C1473      C1478   1.408       .  A
C1474      C1475   1.397       .  A
C1474      H1483   1.083       .  S
C1475      C1476   1.402       .  A
C1475      H1484   1.084       .  S
C1476      C1482   1.404       .  A
C1476      C1477   1.413       .  A
C1477      C1479   1.402       .  A
C1477      C1478   1.405       .  A
C1478      H1485   1.084       .  S
C1479      C1480   1.399       .  A
C1479      H1486   1.084       .  S
C1480      C1481   1.407       .  A
C1480      H1487   1.083       .  S
C1481      C1482   1.407       .  A
C1482      H1488   1.084       .  S
C1489      C1490   1.400       .  A
C1489      C1494   1.406       .  A
C1490      C1491   1.400       .  A
C1490      H1499   1.083       .  S
C1491      C1492   1.406       .  A
C1491      H1500   1.084       .  S
C1492      C1498   1.400       .  A
C1492      C1493   1.412       .  A
C1493      C1495   1.405       .  A
C1493      C1494   1.399       .  A
C1494      H1501   1.085       .  S
C1495      C1496   1.399       .  A
C1495      H1502   1.084       .  S
C1496      C1497   1.400       .  A
C1496      H1503   1.083       .  S
C1497      C1498   1.406       .  A
C1498      H1504   1.085       .  S
C1505      C1506   1.401       .  A
C1505      C1510   1.414       .  A
C1506      C1507   1.388   1_655  A
C1506      H1515   1.083       .  S
C1507      C1508   1.399   1_455  A
C1507      H1516   1.084       .  S
C1508      C1514   1.388   1_655  A
C1508      C1509   1.409       .  A
C1509      C1511   1.410       .  A
C1509      C1510   1.406       .  A
C1510      H1517   1.084       .  S
C1511      C1512   1.407   1_655  A
C1511      H1518   1.083       .  S
C1512      C1513   1.404       .  A
C1512      H1519   1.083       .  S
C1513      C1514   1.407       .  A
C1514      H1520   1.085       .  S
C1521      C1522   1.404       .  A
C1521      C1526   1.409       .  A
C1522      C1523   1.407       .  A
C1522      H1531   1.083       .  S
C1523      C1524   1.409       .  A
C1523      H1532   1.083       .  S
C1524      C1530   1.412       .  A
C1524      C1525   1.412       .  A
C1525      C1527   1.401       .  A
C1525      C1526   1.400       .  A
C1526      H1533   1.085       .  S
C1527      C1528   1.394       .  A
C1527      H1534   1.084       .  S
C1528      C1529   1.404       .  A
C1528      H1535   1.083       .  S
C1529      C1530   1.412       .  A
C1530      H1536   1.084       .  S
C1537      C1538   1.405       .  A
C1537      C1542   1.403       .  A
C1538      C1539   1.395       .  A
C1538      H1547   1.084       .  S
C1539      C1540   1.401       .  A
C1539      H1548   1.084       .  S
C1540      C1546   1.401       .  A
C1540      C1541   1.415       .  A
C1541      C1543   1.401       .  A
C1541      C1542   1.402       .  A
C1542      H1549   1.084       .  S
C1543      C1544   1.396       .  A
C1543      H1550   1.084       .  S
C1544      C1545   1.406       .  A
C1544      H1551   1.083       .  S
C1545      C1546   1.404       .  A
C1546      H1552   1.084       .  S
C1553      C1554   1.403   1_556  A
C1553      C1558   1.410       .  A
C1554      C1555   1.394       .  A
C1554      H1563   1.083       .  S
C1555      C1556   1.402       .  A
C1555      H1564   1.084       .  S
C1556      C1562   1.396       .  A
C1556      C1557   1.411   1_554  A
C1557      C1559   1.405       .  A
C1557      C1558   1.402       .  A
C1558      H1565   1.084       .  S
C1559      C1560   1.400       .  A
C1559      H1566   1.084       .  S
C1560      C1561   1.405   1_556  A
C1560      H1567   1.083       .  S
C1561      C1562   1.407       .  A
C1562      H1568   1.085       .  S
C1569      C1570   1.405       .  A
C1569      C1574   1.403       .  A
C1570      C1571   1.396       .  A
C1570      H1579   1.083   1_565  S
C1571      C1572   1.401       .  A
C1571      H1580   1.084   1_565  S
C1572      C1578   1.405       .  A
C1572      C1573   1.416       .  A
C1573      C1575   1.399       .  A
C1573      C1574   1.404       .  A
C1574      H1581   1.084       .  S
C1575      C1576   1.395       .  A
C1575      H1582   1.084       .  S
C1576      C1577   1.409       .  A
C1576      H1583   1.083       .  S
C1577      C1578   1.405       .  A
C1578      H1584   1.084       .  S
C1585      C1586   1.407       .  A
C1585      C1590   1.410       .  A
C1586      C1587   1.399   1_554  A
C1586      H1595   1.083       .  S
C1587      C1588   1.402   1_556  A
C1587      H1596   1.084       .  S
C1588      C1594   1.406   1_554  A
C1588      C1589   1.413       .  A
C1589      C1591   1.403       .  A
C1589      C1590   1.406       .  A
C1590      H1597   1.084       .  S
C1591      C1592   1.399       .  A
C1591      H1598   1.084       .  S
C1592      C1593   1.406   1_554  A
C1592      H1599   1.083       .  S
C1593      C1594   1.406       .  A
C1594      H1600   1.084       .  S
C1601      C1602   1.403       .  A
C1601      C1606   1.405       .  A
C1602      C1603   1.389       .  A
C1602      H1611   1.084       .  S
C1603      C1604   1.398       .  A
C1603      H1612   1.084       .  S
C1604      C1610   1.395       .  A
C1604      C1605   1.414       .  A
C1605      C1607   1.404       .  A
C1605      C1606   1.406       .  A
C1606      H1613   1.084       .  S
C1607      C1608   1.401       .  A
C1607      H1614   1.083       .  S
C1608      C1609   1.405       .  A
C1608      H1615   1.083       .  S
C1609      C1610   1.402       .  A
C1610      H1616   1.085       .  S
C1617      C1618   1.406       .  A
C1617      C1622   1.408       .  A
C1618      C1619   1.397       .  A
C1618      H1627   1.083       .  S
C1619      C1620   1.402       .  A
C1619      H1628   1.084   1_565  S
C1620      C1626   1.404       .  A
C1620      C1621   1.413       .  A
C1621      C1623   1.401       .  A
C1621      C1622   1.403       .  A
C1622      H1629   1.084       .  S
C1623      C1624   1.397       .  A
C1623      H1630   1.084       .  S
C1624      C1625   1.407       .  A
C1624      H1631   1.083       .  S
C1625      C1626   1.407       .  A
C1626      H1632   1.084   1_565  S
C1633      C1634   1.405       .  A
C1633      C1638   1.404       .  A
C1634      C1635   1.400       .  A
C1634      H1643   1.083       .  S
C1635      C1636   1.404       .  A
C1635      H1644   1.084       .  S
C1636      C1642   1.403       .  A
C1636      C1637   1.412       .  A
C1637      C1639   1.399       .  A
C1637      C1638   1.397       .  A
C1638      H1645   1.084       .  S
C1639      C1640   1.392       .  A
C1639      H1646   1.084       .  S
C1640      C1641   1.405       .  A
C1640      H1647   1.083       .  S
C1641      C1642   1.408       .  A
C1642      H1648   1.084       .  S
C1649      C1650   1.407       .  A
C1649      C1654   1.405       .  A
C1650      C1651   1.395       .  A
C1650      H1659   1.083       .  S
C1651      C1652   1.400       .  A
C1651      H1660   1.084       .  S
C1652      C1658   1.403       .  A
C1652      C1653   1.415       .  A
C1653      C1655   1.401       .  A
C1653      C1654   1.404       .  A
C1654      H1661   1.084       .  S
C1655      C1656   1.396       .  A
C1655      H1662   1.084       .  S
C1656      C1657   1.407       .  A
C1656      H1663   1.083       .  S
C1657      C1658   1.404       .  A
C1658      H1664   1.084       .  S
C1665      C1666   1.404       .  A
C1665      C1670   1.406       .  A
C1666      C1667   1.392       .  A
C1666      H1675   1.084       .  S
C1667      C1668   1.399       .  A
C1667      H1676   1.084       .  S
C1668      C1674   1.398       .  A
C1668      C1669   1.414       .  A
C1669      C1671   1.404       .  A
C1669      C1670   1.406       .  A
C1670      H1677   1.084       .  S
C1671      C1672   1.400       .  A
C1671      H1678   1.084       .  S
C1672      C1673   1.406       .  A
C1672      H1679   1.083       .  S
C1673      C1674   1.404       .  A
C1674      H1680   1.084       .  S
C1681      C1682   1.406       .  A
C1681      C1686   1.404       .  A
C1682      C1683   1.400       .  A
C1682      H1691   1.083       .  S
C1683      C1684   1.403       .  A
C1683      H1692   1.084       .  S
C1684      C1690   1.408       .  A
C1684      C1685   1.415       .  A
C1685      C1687   1.400       .  A
C1685      C1686   1.404       .  A
C1686      H1693   1.084       .  S
C1687      C1688   1.395       .  A
C1687      H1694   1.084       .  S
C1688      C1689   1.406       .  A
C1688      H1695   1.083       .  S
C1689      C1690   1.406       .  A
C1690      H1696   1.084       .  S
C1697      C1698   1.407       .  A
C1697      C1702   1.407       .  A
C1698      C1699   1.395       .  A
C1698      H1707   1.083       .  S
C1699      C1700   1.399       .  A
C1699      H1708   1.084       .  S
C1700      C1706   1.402       .  A
C1700      C1701   1.415       .  A
C1701      C1703   1.403       .  A
C1701      C1702   1.406       .  A
C1702      H1709   1.084       .  S
C1703      C1704   1.399   1_565  A
C1703      H1710   1.084   1_565  S
C1704      C1705   1.404   1_545  A
C1704      H1711   1.083       .  S
C1705      C1706   1.402       .  A
C1706      H1712   1.085       .  S
C1713      C1714   1.403       .  A
C1713      C1718   1.405       .  A
C1714      C1715   1.398       .  A
C1714      H1723   1.083       .  S
C1715      C1716   1.404       .  A
C1715      H1724   1.084       .  S
C1716      C1722   1.403       .  A
C1716      C1717   1.413       .  A
C1717      C1719   1.402       .  A
C1717      C1718   1.403       .  A
C1718      H1725   1.085       .  S
C1719      C1720   1.398       .  A
C1719      H1726   1.084       .  S
C1720      C1721   1.405       .  A
C1720      H1727   1.083       .  S
C1721      C1722   1.408       .  A
C1722      H1728   1.084       .  S
C1729      C1730   1.409       .  A
C1729      C1734   1.405       .  A
C1730      C1731   1.391       .  A
C1730      H1739   1.083       .  S
C1731      C1732   1.397       .  A
C1731      H1740   1.084       .  S
C1732      C1738   1.402       .  A
C1732      C1733   1.416       .  A
C1733      C1735   1.401       .  A
C1733      C1734   1.407       .  A
C1734      H1741   1.084       .  S
C1735      C1736   1.398       .  A
C1735      H1742   1.084       .  S
C1736      C1737   1.408       .  A
C1736      H1743   1.083       .  S
C1737      C1738   1.403       .  A
C1738      H1744   1.084       .  S
C1745      C1746   1.407       .  A
C1745      C1750   1.404       .  A
C1746      C1747   1.400       .  A
C1746      H1755   1.083       .  S
C1747      C1748   1.403       .  A
C1747      H1756   1.083       .  S
C1748      C1754   1.408       .  A
C1748      C1749   1.415       .  A
C1749      C1751   1.398       .  A
C1749      C1750   1.400       .  A
C1750      H1757   1.084       .  S
C1751      C1752   1.391       .  A
C1751      H1758   1.084       .  S
C1752      C1753   1.405       .  A
C1752      H1759   1.084       .  S
C1753      C1754   1.404       .  A
C1754      H1760   1.084       .  S
C1761      C1762   1.408       .  A
C1761      C1766   1.409       .  A
C1762      C1763   1.398       .  A
C1762      H1771   1.083       .  S
C1763      C1764   1.401       .  A
C1763      H1772   1.084       .  S
C1764      C1770   1.408   1_556  A
C1764      C1765   1.414   1_556  A
C1765      C1767   1.404       .  A
C1765      C1766   1.410   1_554  A
C1766      H1773   1.084   1_556  S
C1767      C1768   1.401       .  A
C1767      H1774   1.083       .  S
C1768      C1769   1.406       .  A
C1768      H1775   1.083       .  S
C1769      C1770   1.407       .  A
C1770      H1776   1.084   1_554  S
C1777      C1778   1.408       .  A
C1777      C1782   1.407       .  A
C1778      C1779   1.393       .  A
C1778      H1787   1.083       .  S
C1779      C1780   1.398       .  A
C1779      H1788   1.084       .  S
C1780      C1786   1.400       .  A
C1780      C1781   1.415       .  A
C1781      C1783   1.402       .  A
C1781      C1782   1.406       .  A
C1782      H1789   1.084       .  S
C1783      C1784   1.398       .  A
C1783      H1790   1.084       .  S
C1784      C1785   1.407       .  A
C1784      H1791   1.083       .  S
C1785      C1786   1.402       .  A
C1786      H1792   1.084       .  S
C1793      C1794   1.407       .  A
C1793      C1798   1.403       .  A
C1794      C1795   1.402       .  A
C1794      H1803   1.083       .  S
C1795      C1796   1.404       .  A
C1795      H1804   1.083       .  S
C1796      C1802   1.410   1_556  A
C1796      C1797   1.415   1_556  A
C1797      C1799   1.399       .  A
C1797      C1798   1.404   1_554  A
C1798      H1805   1.084   1_556  S
C1799      C1800   1.395       .  A
C1799      H1806   1.084       .  S
C1800      C1801   1.407       .  A
C1800      H1807   1.083       .  S
C1801      C1802   1.410       .  A
C1802      H1808   1.084   1_554  S
C1809      C1810   1.404       .  A
C1809      C1814   1.404       .  A
C1810      C1811   1.395       .  A
C1810      H1819   1.083       .  S
C1811      C1812   1.401       .  A
C1811      H1820   1.084       .  S
C1812      C1818   1.398       .  A
C1812      C1813   1.414       .  A
C1813      C1815   1.401       .  A
C1813      C1814   1.397       .  A
C1814      H1821   1.085       .  S
C1815      C1816   1.393       .  A
C1815      H1822   1.084       .  S
C1816      C1817   1.403       .  A
C1816      H1823   1.084       .  S
C1817      C1818   1.401       .  A
C1818      H1824   1.085       .  S
C1825      C1826   1.405       .  A
C1825      C1830   1.408       .  A
C1826      C1827   1.399       .  A
C1826      H1835   1.083       .  S
C1827      C1828   1.403       .  A
C1827      H1836   1.084       .  S
C1828      C1834   1.401   1_565  A
C1828      C1829   1.412       .  A
C1829      C1831   1.402   1_565  A
C1829      C1830   1.398       .  A
C1830      H1837   1.084       .  S
C1831      C1832   1.395       .  A
C1831      H1838   1.084       .  S
C1832      C1833   1.405       .  A
C1832      H1839   1.083       .  S
C1833      C1834   1.408       .  A
C1834      H1840   1.084       .  S
C1841      C1842   1.406       .  A
C1841      C1846   1.403       .  A
C1842      C1843   1.401       .  A
C1842      H1851   1.083       .  S
C1843      C1844   1.404       .  A
C1843      H1852   1.083       .  S
C1844      C1850   1.408       .  A
C1844      C1845   1.416       .  A
C1845      C1847   1.399       .  A
C1845      C1846   1.400       .  A
C1846      H1853   1.085       .  S
C1847      C1848   1.392       .  A
C1847      H1854   1.084       .  S
C1848      C1849   1.404       .  A
C1848      H1855   1.084       .  S
C1849      C1850   1.404       .  A
C1850      H1856   1.084       .  S
C1857      C1858   1.404       .  A
C1857      C1862   1.406       .  A
C1858      C1859   1.402       .  A
C1858      H1867   1.083       .  S
C1859      C1860   1.405       .  A
C1859      H1868   1.083       .  S
C1860      C1866   1.411       .  A
C1860      C1861   1.415       .  A
C1861      C1863   1.402       .  A
C1861      C1862   1.406       .  A
C1862      H1869   1.085       .  S
C1863      C1864   1.397       .  A
C1863      H1870   1.084       .  S
C1864      C1865   1.405       .  A
C1864      H1871   1.084       .  S
C1865      C1866   1.407       .  A
C1866      H1872   1.084       .  S
C1873      C1874   1.406       .  A
C1873      C1878   1.405       .  A
C1874      C1875   1.393       .  A
C1874      H1883   1.083       .  S
C1875      C1876   1.399       .  A
C1875      H1884   1.084       .  S
C1876      C1882   1.399       .  A
C1876      C1877   1.414       .  A
C1877      C1879   1.402       .  A
C1877      C1878   1.402       .  A
C1878      H1885   1.084       .  S
C1879      C1880   1.397       .  A
C1879      H1886   1.084       .  S
C1880      C1881   1.405       .  A
C1880      H1887   1.083       .  S
C1881      C1882   1.402       .  A
C1882      H1888   1.085       .  S
C1889      C1890   1.407       .  A
C1889      C1894   1.407       .  A
C1890      C1891   1.401       .  A
C1890      H1899   1.083       .  S
C1891      C1892   1.404       .  A
C1891      H1900   1.083       .  S
C1892      C1898   1.409       .  A
C1892      C1893   1.414       .  A
C1893      C1895   1.401       .  A
C1893      C1894   1.403       .  A
C1894      H1901   1.084       .  S
C1895      C1896   1.395   1_545  A
C1895      H1902   1.084   1_545  S
C1896      C1897   1.404   1_565  A
C1896      H1903   1.083       .  S
C1897      C1898   1.407       .  A
C1898      H1904   1.084       .  S
C1905      C1906   1.402       .  A
C1905      C1910   1.406       .  A
C1906      C1907   1.403       .  A
C1906      H1915   1.083       .  S
C1907      C1908   1.407       .  A
C1907      H1916   1.084       .  S
C1908      C1914   1.405       .  A
C1908      C1909   1.414       .  A
C1909      C1911   1.404       .  A
C1909      C1910   1.399       .  A
C1910      H1917   1.085       .  S
C1911      C1912   1.396       .  A
C1911      H1918   1.084       .  S
C1912      C1913   1.399       .  A
C1912      H1919   1.084       .  S
C1913      C1914   1.405       .  A
C1914      H1920   1.085       .  S
C1921      C1922   1.407       .  A
C1921      C1926   1.408       .  A
C1922      C1923   1.410       .  A
C1922      H1931   1.083       .  S
C1923      C1924   1.410       .  A
C1923      H1932   1.083       .  S
C1924      C1930   1.417       .  A
C1924      C1925   1.412       .  A
C1925      C1927   1.398       .  A
C1925      C1926   1.399       .  A
C1926      H1933   1.084       .  S
C1927      C1928   1.391       .  A
C1927      H1934   1.084       .  S
C1928      C1929   1.406       .  A
C1928      H1935   1.083       .  S
C1929      C1930   1.415       .  A
C1930      H1936   1.084       .  S
C1937      C1938   1.403       .  A
C1937      C1942   1.408       .  A
C1938      C1939   1.400       .  A
C1938      H1947   1.083       .  S
C1939      C1940   1.405       .  A
C1939      H1948   1.083       .  S
C1940      C1946   1.406       .  A
C1940      C1941   1.413       .  A
C1941      C1943   1.404       .  A
C1941      C1942   1.406       .  A
C1942      H1949   1.085       .  S
C1943      C1944   1.400       .  A
C1943      H1950   1.084       .  S
C1944      C1945   1.407       .  A
C1944      H1951   1.083       .  S
C1945      C1946   1.410       .  A
C1946      H1952   1.084       .  S
C1953      C1954   1.408       .  A
C1953      C1958   1.406       .  A
C1954      C1955   1.399       .  A
C1954      H1963   1.083       .  S
C1955      C1956   1.402       .  A
C1955      H1964   1.084       .  S
C1956      C1962   1.409       .  A
C1956      C1957   1.415       .  A
C1957      C1959   1.401       .  A
C1957      C1958   1.408       .  A
C1958      H1965   1.084       .  S
C1959      C1960   1.398       .  A
C1959      H1966   1.084       .  S
C1960      C1961   1.408       .  A
C1960      H1967   1.083       .  S
C1961      C1962   1.407       .  A
C1962      H1968   1.084       .  S
C1969      C1970   1.403       .  A
C1969      C1974   1.411       .  A
C1970      C1971   1.393       .  A
C1970      H1979   1.083       .  S
C1971      C1972   1.400       .  A
C1971      H1980   1.084       .  S
C1972      C1978   1.399       .  A
C1972      C1973   1.412       .  A
C1973      C1975   1.407       .  A
C1973      C1974   1.410       .  A
C1974      H1981   1.084       .  S
C1975      C1976   1.405       .  A
C1975      H1982   1.083       .  S
C1976      C1977   1.406       .  A
C1976      H1983   1.083       .  S
C1977      C1978   1.408       .  A
C1978      H1984   1.084       .  S
C1985      C1986   1.404       .  A
C1985      C1990   1.405       .  A
C1986      C1987   1.394   1_565  A
C1986      H1995   1.084       .  S
C1987      C1988   1.400       .  A
C1987      H1996   1.084       .  S
C1988      C1994   1.400   1_554  A
C1988      C1989   1.415   1_554  A
C1989      C1991   1.403       .  A
C1989      C1990   1.405   1_546  A
C1990      H1997   1.085   1_554  S
C1991      C1992   1.398       .  A
C1991      H1998   1.084       .  S
C1992      C1993   1.404       .  A
C1992      H1999   1.084       .  S
C1993      C1994   1.401       .  A
C1994      H2000   1.085   1_556  S
C2001      C2002   1.407       .  A
C2001      C2006   1.410       .  A
C2002      C2003   1.392       .  A
C2002      H2011   1.083       .  S
C2003      C2004   1.398       .  A
C2003      H2012   1.084       .  S
C2004      C2010   1.402       .  A
C2004      C2005   1.414       .  A
C2005      C2007   1.406       .  A
C2005      C2006   1.414       .  A
C2006      H2013   1.084       .  S
C2007      C2008   1.405       .  A
C2007      H2014   1.083       .  S
C2008      C2009   1.407       .  A
C2008      H2015   1.083       .  S
C2009      C2010   1.406       .  A
C2010      H2016   1.084       .  S
C2017      C2018   1.406       .  A
C2017      C2022   1.409   1_565  A
C2018      C2019   1.395       .  A
C2018      H2027   1.083       .  S
C2019      C2020   1.400       .  A
C2019      H2028   1.084       .  S
C2020      C2026   1.402   1_556  A
C2020      C2021   1.414   1_556  A
C2021      C2023   1.404       .  A
C2021      C2022   1.407   1_564  A
C2022      H2029   1.084   1_556  S
C2023      C2024   1.400       .  A
C2023      H2030   1.083       .  S
C2024      C2025   1.405       .  A
C2024      H2031   1.083       .  S
C2025      C2026   1.403       .  A
C2026      H2032   1.085   1_554  S
C2033      C2034   1.408       .  A
C2033      C2038   1.409       .  A
C2034      C2035   1.398       .  A
C2034      H2043   1.083       .  S
C2035      C2036   1.401       .  A
C2035      H2044   1.084   1_556  S
C2036      C2042   1.409   1_556  A
C2036      C2037   1.415       .  A
C2037      C2039   1.404       .  A
C2037      C2038   1.411       .  A
C2038      H2045   1.084       .  S
C2039      C2040   1.401       .  A
C2039      H2046   1.083       .  S
C2040      C2041   1.405   1_556  A
C2040      H2047   1.083       .  S
C2041      C2042   1.406       .  A
C2042      H2048   1.084       .  S
C2049      C2050   1.407       .  A
C2049      C2054   1.405       .  A
C2050      C2051   1.396       .  A
C2050      H2059   1.083       .  S
C2051      C2052   1.400       .  A
C2051      H2060   1.084       .  S
C2052      C2058   1.403       .  A
C2052      C2053   1.415       .  A
C2053      C2055   1.401       .  A
C2053      C2054   1.404       .  A
C2054      H2061   1.084       .  S
C2055      C2056   1.396       .  A
C2055      H2062   1.084       .  S
C2056      C2057   1.406       .  A
C2056      H2063   1.083       .  S
C2057      C2058   1.404       .  A
C2058      H2064   1.084       .  S
C2065      C2066   1.405       .  A
C2065      C2070   1.406       .  A
C2066      C2067   1.389       .  A
C2066      H2075   1.084       .  S
C2067      C2068   1.397       .  A
C2067      H2076   1.084       .  S
C2068      C2074   1.396       .  A
C2068      C2069   1.414       .  A
C2069      C2071   1.405       .  A
C2069      C2070   1.408       .  A
C2070      H2077   1.084       .  S
C2071      C2072   1.402       .  A
C2071      H2078   1.083       .  S
C2072      C2073   1.406       .  A
C2072      H2079   1.083       .  S
C2073      C2074   1.403       .  A
C2074      H2080   1.085       .  S
C2081      C2082   1.404       .  A
C2081      C2086   1.411       .  A
C2082      C2083   1.402       .  A
C2082      H2091   1.083       .  S
C2083      C2084   1.406       .  A
C2083      H2092   1.083       .  S
C2084      C2090   1.405   1_565  A
C2084      C2085   1.411       .  A
C2085      C2087   1.404   1_565  A
C2085      C2086   1.400       .  A
C2086      H2093   1.084       .  S
C2087      C2088   1.397       .  A
C2087      H2094   1.084       .  S
C2088      C2089   1.403       .  A
C2088      H2095   1.083       .  S
C2089      C2090   1.410       .  A
C2090      H2096   1.084       .  S
C2097      C2098   1.403       .  A
C2097      C2102   1.405       .  A
C2098      C2099   1.400       .  A
C2098      H2107   1.083       .  S
C2099      C2100   1.404       .  A
C2099      H2108   1.084       .  S
C2100      C2106   1.409       .  A
C2100      C2101   1.416       .  A
C2101      C2103   1.402       .  A
C2101      C2102   1.409       .  A
C2102      H2109   1.085       .  S
C2103      C2104   1.398       .  A
C2103      H2110   1.084       .  S
C2104      C2105   1.407       .  A
C2104      H2111   1.083       .  S
C2105      C2106   1.407       .  A
C2106      H2112   1.084       .  S
C2113      C2114   1.407       .  A
C2113      C2118   1.406       .  A
C2114      C2115   1.395       .  A
C2114      H2123   1.083       .  S
C2115      C2116   1.400       .  A
C2115      H2124   1.084       .  S
C2116      C2122   1.403       .  A
C2116      C2117   1.415       .  A
C2117      C2119   1.401       .  A
C2117      C2118   1.406       .  A
C2118      H2125   1.084       .  S
C2119      C2120   1.397       .  A
C2119      H2126   1.084       .  S
C2120      C2121   1.407       .  A
C2120      H2127   1.083       .  S
C2121      C2122   1.405       .  A
C2122      H2128   1.084       .  S
C2129      C2130   1.402       .  A
C2129      C2134   1.405       .  A
C2130      C2131   1.399       .  A
C2130      H2139   1.083       .  S
C2131      C2132   1.404       .  A
C2131      H2140   1.084       .  S
C2132      C2138   1.403       .  A
C2132      C2133   1.413       .  A
C2133      C2135   1.403       .  A
C2133      C2134   1.402       .  A
C2134      H2141   1.085       .  S
C2135      C2136   1.397       .  A
C2135      H2142   1.084       .  S
C2136      C2137   1.405       .  A
C2136      H2143   1.083       .  S
C2137      C2138   1.409       .  A
C2138      H2144   1.084       .  S
C2145      C2146   1.406       .  A
C2145      C2150   1.405       .  A
C2146      C2147   1.391       .  A
C2146      H2155   1.084       .  S
C2147      C2148   1.398       .  A
C2147      H2156   1.084       .  S
C2148      C2154   1.399       .  A
C2148      C2149   1.415       .  A
C2149      C2151   1.404       .  A
C2149      C2150   1.408       .  A
C2150      H2157   1.084       .  S
C2151      C2152   1.401       .  A
C2151      H2158   1.083       .  S
C2152      C2153   1.406       .  A
C2152      H2159   1.083       .  S
C2153      C2154   1.404       .  A
C2154      H2160   1.084       .  S
C2161      C2162   1.406       .  A
C2161      C2166   1.407   1_655  A
C2162      C2163   1.400       .  A
C2162      H2171   1.083       .  S
C2163      C2164   1.403       .  A
C2163      H2172   1.084       .  S
C2164      C2170   1.406   1_645  A
C2164      C2165   1.413   1_655  A
C2165      C2167   1.400   1_545  A
C2165      C2166   1.401       .  A
C2166      H2173   1.084       .  S
C2167      C2168   1.395       .  A
C2167      H2174   1.084       .  S
C2168      C2169   1.407       .  A
C2168      H2175   1.083       .  S
C2169      C2170   1.408       .  A
C2170      H2176   1.084   1_455  S
C2177      C2178   1.404       .  A
C2177      C2182   1.406       .  A
C2178      C2179   1.393       .  A
C2178      H2187   1.084       .  S
C2179      C2180   1.399       .  A
C2179      H2188   1.084       .  S
C2180      C2186   1.403       .  A
C2180      C2181   1.416       .  A
C2181      C2183   1.404       .  A
C2181      C2182   1.412       .  A
C2182      H2189   1.084       .  S
C2183      C2184   1.402       .  A
C2183      H2190   1.083       .  S
C2184      C2185   1.407       .  A
C2184      H2191   1.083       .  S
C2185      C2186   1.402       .  A
C2186      H2192   1.085       .  S
C2193      C2194   1.406       .  A
C2193      C2198   1.406       .  A
C2194      C2195   1.396       .  A
C2194      H2203   1.083       .  S
C2195      C2196   1.401       .  A
C2195      H2204   1.084       .  S
C2196      C2202   1.404       .  A
C2196      C2197   1.414       .  A
C2197      C2199   1.402       .  A
C2197      C2198   1.407       .  A
C2198      H2205   1.084       .  S
C2199      C2200   1.399       .  A
C2199      H2206   1.084       .  S
C2200      C2201   1.408       .  A
C2200      H2207   1.083       .  S
C2201      C2202   1.407       .  A
C2202      H2208   1.084       .  S
C2209      C2210   1.405       .  A
C2209      C2214   1.405       .  A
C2210      C2211   1.394       .  A
C2210      H2219   1.083       .  S
C2211      C2212   1.400       .  A
C2211      H2220   1.084       .  S
C2212      C2218   1.399       .  A
C2212      C2213   1.414       .  A
C2213      C2215   1.401       .  A
C2213      C2214   1.402       .  A
C2214      H2221   1.084       .  S
C2215      C2216   1.396       .  A
C2215      H2222   1.084       .  S
C2216      C2217   1.407       .  A
C2216      H2223   1.083       .  S
C2217      C2218   1.404       .  A
C2218      H2224   1.084       .  S
C2225      C2226   1.407       .  A
C2225      C2230   1.406       .  A
C2226      C2227   1.399       .  A
C2226      H2235   1.083       .  S
C2227      C2228   1.402       .  A
C2227      H2236   1.084       .  S
C2228      C2234   1.407       .  A
C2228      C2229   1.414       .  A
C2229      C2231   1.400       .  A
C2229      C2230   1.405       .  A
C2230      H2237   1.084       .  S
C2231      C2232   1.396       .  A
C2231      H2238   1.084       .  S
C2232      C2233   1.407       .  A
C2232      H2239   1.083       .  S
C2233      C2234   1.408       .  A
C2234      H2240   1.084       .  S
