geometry optimzed in LAMMPS
_audit_creation_date              2020-12-01 
_audit_creation_method            'lammps2cif' 
_symmetry_space_group_name_H-M    'P1' 
_symmetry_Int_Tables_number       1 
_symmetry_cell_setting            triclinic 
loop_ 
_symmetry_equiv_pos_as_xyz 
  x,y,z 
_cell_length_a                    76.25320554 
_cell_length_b                    39.23613599168005 
_cell_length_c                    78.68075133777387 
_cell_angle_alpha                 90.08205972364216 
_cell_angle_beta                  90.05344986930483 
_cell_angle_gamma                 90.00829992993823 
loop_ 
_atom_site_label 
_atom_site_type_symbol 
_atom_site_fract_x 
_atom_site_fract_y 
_atom_site_fract_z 
_atom_site_charge 
Zn1        Zn  0.61493996  0.26686346  0.85710722     1.49700
Zn2        Zn  0.63975864  0.32994888  0.85241304     1.49400
Zn3        Zn  0.61369740  0.32649119  0.88425469     1.49100
Zn4        Zn  0.64759748  0.27643457  0.88230059     1.49500
O5          O  0.62908600  0.29991305  0.86922342    -1.83900
O6          O  0.61685918  0.27209467  0.83191599    -0.74600
O7          O  0.63116630  0.37791255  0.85523102    -0.74400
O8          O  0.58793073  0.31397530  0.88107923    -0.73900
O9          O  0.63567568  0.31449106  0.82812096    -0.74600
O10         O  0.58957470  0.27089023  0.86288097    -0.74200
O11         O  0.61644394  0.37688567  0.87957861    -0.74800
O12         O  0.64369531  0.28468527  0.90738582    -0.74200
O13         O  0.66548708  0.33391265  0.85676627    -0.74900
O14         O  0.62032011  0.31844454  0.90879164    -0.74300
O15         O  0.67184953  0.29672146  0.87710103    -0.74800
O16         O  0.64651857  0.22458339  0.87850761    -0.74700
O17         O  0.62257699  0.21970127  0.86256019    -0.74500
C18         C  0.62571403  0.29129974  0.82215805     0.77300
C19         C  0.62324769  0.39325471  0.86724946     0.77800
C20         C  0.58059096  0.29075303  0.87221598     0.76800
C21         C  0.63258094  0.30173533  0.91600542     0.77200
C22         C  0.67645607  0.32047358  0.86694002     0.78300
C23         C  0.63519483  0.20624732  0.87071979     0.77300
Zn24       Zn  0.61827371  0.76803140  0.89699688     1.49700
Zn25       Zn  0.61226002  0.81917897  0.86514447     1.49400
Zn26       Zn  0.64164684  0.83300500  0.89383978     1.49100
Zn27       Zn  0.64698454  0.77181007  0.86763684     1.49500
O28         O  0.62966865  0.79805384  0.88067193    -1.83900
O29         O  0.59230281  0.76952544  0.89389723    -0.74600
O30         O  0.61377775  0.87159139  0.86652291    -0.74400
O31         O  0.63936190  0.82725624  0.91924182    -0.73900
O32         O  0.58756021  0.80400361  0.87196424    -0.74600
O33         O  0.62361080  0.78005570  0.92137225    -0.74200
O34         O  0.63274714  0.87881223  0.88766491    -0.74800
O35         O  0.67164217  0.79110440  0.87036281    -0.74200
O36         O  0.61651131  0.80390925  0.84039983    -0.74900
O37         O  0.66709518  0.83417176  0.88813727    -0.74300
O38         O  0.64094463  0.77350560  0.84284801    -0.74800
O39         O  0.64618225  0.72152875  0.87362651    -0.74700
O40         O  0.62544477  0.71964569  0.89339669    -0.74500
C41         C  0.58187651  0.78411695  0.88357891     0.77300
C42         C  0.62247437  0.89104633  0.87650403     0.77800
C43         C  0.63193793  0.80456005  0.92825926     0.76800
C44         C  0.67726881  0.81676494  0.87872756     0.77200
C45         C  0.62868767  0.78589685  0.83375507     0.78300
C46         C  0.63645768  0.70476940  0.88379819     0.77300
Zn47       Zn  0.64126116  0.18845110  0.63741189     1.49700
Zn48       Zn  0.61394940  0.24675855  0.63402423     1.49400
Zn49       Zn  0.64369061  0.23830963  0.60539435     1.49100
Zn50       Zn  0.61147496  0.18419698  0.60849458     1.49500
O51         O  0.62761464  0.21434400  0.62103009    -1.83900
O52         O  0.63938041  0.20629697  0.66139044    -0.74600
O53         O  0.62184096  0.29363727  0.62881766    -0.74400
O54         O  0.66890641  0.22116965  0.60827241    -0.73900
O55         O  0.61705062  0.24211237  0.65924432    -0.74600
O56         O  0.66647412  0.18786214  0.63091082    -0.74200
O57         O  0.64268703  0.29013216  0.60919286    -0.74800
O58         O  0.61636449  0.18740064  0.58323939    -0.74200
O59         O  0.58847951  0.24409033  0.62836932    -0.74900
O60         O  0.63687251  0.22750222  0.58109086    -0.74300
O61         O  0.58589417  0.19881405  0.61162611    -0.74800
O62         O  0.61481683  0.13483510  0.61596622    -0.74700
O63         O  0.63394443  0.13965023  0.63718595    -0.74500
C64         C  0.62850890  0.22680737  0.66816566     0.77300
C65         C  0.63306790  0.30772315  0.61919632     0.77800
C66         C  0.67566973  0.20084755  0.61910997     0.76800
C67         C  0.62635728  0.20620023  0.57424566     0.77200
C68         C  0.57908588  0.22401137  0.61950529     0.78300
C69         C  0.62410963  0.12153061  0.62773256     0.77300
Zn70       Zn  0.61369561  0.74478920  0.61576612     1.49700
Zn71       Zn  0.64322356  0.74025444  0.64536836     1.49400
Zn72       Zn  0.60918699  0.69006068  0.64579482     1.49100
Zn73       Zn  0.63906079  0.68300509  0.61699682     1.49500
O74         O  0.62621135  0.71465854  0.63128835    -1.83900
O75         O  0.62168182  0.79250677  0.61946855    -0.74600
O76         O  0.63615004  0.73720726  0.67013038    -0.74400
O77         O  0.58402570  0.70437793  0.63997421    -0.73900
O78         O  0.64281571  0.79089145  0.63898016    -0.74600
O79         O  0.58775687  0.74289142  0.61963837    -0.74200
O80         O  0.61308254  0.70250776  0.67080338    -0.74800
O81         O  0.63047617  0.63612254  0.62078294    -0.74200
O82         O  0.66817181  0.72040035  0.64329118    -0.74900
O83         O  0.61158777  0.63822469  0.64225254    -0.74300
O84         O  0.66433739  0.68174181  0.62304101    -0.74800
O85         O  0.63728156  0.69253015  0.59199471    -0.74700
O86         O  0.61784273  0.73428550  0.59093595    -0.74500
C87         C  0.63314511  0.80742625  0.62858918     0.77300
C88         C  0.62412116  0.72181012  0.67836476     0.77800
C89         C  0.57776354  0.72588132  0.62940977     0.76800
C90         C  0.62036265  0.62131235  0.63125314     0.77200
C91         C  0.67418054  0.69686216  0.63367792     0.78300
C92         C  0.62795580  0.71325329  0.58349782     0.77300
Zn93       Zn  0.35544764  0.23835397  0.88601894     1.49700
Zn94       Zn  0.38992276  0.19075486  0.88446319     1.49400
Zn95       Zn  0.36186022  0.18555138  0.85505528     1.49100
Zn96       Zn  0.38585058  0.25020675  0.85780345     1.49500
O97         O  0.37308674  0.21654843  0.87096306    -1.83900
O98         O  0.36175257  0.22951170  0.91082436    -0.74600
O99         O  0.38638554  0.14044174  0.88165297    -0.74400
O100        O  0.33653298  0.18281308  0.86045208    -0.73900
O101        O  0.38670780  0.20055328  0.90911657    -0.74600
O102        O  0.33072747  0.21855609  0.88164606    -0.74200
O103        O  0.36976968  0.13717262  0.85854265    -0.74800
O104        O  0.38080833  0.24656930  0.83264995    -0.74200
O105        O  0.41488713  0.20261971  0.87874345    -0.74900
O106        O  0.36424395  0.20028831  0.83047960    -0.74300
O107        O  0.41199352  0.24651992  0.86123666    -0.74800
O108        O  0.37865583  0.29645424  0.86540780    -0.74700
O109        O  0.35635147  0.29033094  0.88335695    -0.74500
C110        C  0.37489289  0.21516752  0.91788313     0.77300
C111        C  0.37822450  0.12293396  0.87056270     0.77800
C112        C  0.32586523  0.19556812  0.87110296     0.76800
C113        C  0.37204550  0.22554967  0.82367437     0.77200
C114        C  0.42159451  0.22617752  0.86973962     0.78300
C115        C  0.36704924  0.30920663  0.87513606     0.77300
Zn116      Zn  0.38662214  0.74823616  0.86537043     1.49700
Zn117      Zn  0.36104312  0.68718008  0.86334581     1.49400
Zn118      Zn  0.38922568  0.69095476  0.89369177     1.49100
Zn119      Zn  0.35553825  0.74240401  0.89271948     1.49500
O120        O  0.37307878  0.71720288  0.87913058    -1.83900
O121        O  0.38401661  0.74014348  0.84046257    -0.74600
O122        O  0.37000858  0.63984287  0.86575792    -0.74400
O123        O  0.41495729  0.70437703  0.88949819    -0.73900
O124        O  0.36295469  0.70145156  0.83871075    -0.74600
O125        O  0.41204585  0.74566620  0.87048895    -0.74200
O126        O  0.38632535  0.63992005  0.88921162    -0.74800
O127        O  0.36113555  0.73661821  0.91771425    -0.74200
O128        O  0.33584426  0.68356689  0.86940279    -0.74900
O129        O  0.38363033  0.70049747  0.91843588    -0.74300
O130        O  0.33079109  0.72284183  0.88913806    -0.74800
O131        O  0.35623037  0.79343208  0.88719234    -0.74700
O132        O  0.37855692  0.79550141  0.86904587    -0.74500
C133        C  0.37351682  0.72219535  0.83168692     0.77300
C134        C  0.37876515  0.62408325  0.87705218     0.77800
C135        C  0.42165725  0.72711508  0.87987937     0.76800
C136        C  0.37233891  0.71910937  0.92601458     0.77200
C137        C  0.32551638  0.69838242  0.87969664     0.78300
C138        C  0.36650192  0.81013325  0.87746154     0.77300
Zn139      Zn  0.38360271  0.25486640  0.63305335     1.49700
Zn140      Zn  0.36005011  0.31935506  0.63781771     1.49400
Zn141      Zn  0.38755223  0.31605712  0.60703927     1.49100
Zn142      Zn  0.35251743  0.26889552  0.60616077     1.49500
O143        O  0.37081661  0.28977887  0.62080433    -1.83900
O144        O  0.38224298  0.26050396  0.65843018    -0.74600
O145        O  0.37022742  0.36647675  0.63649020    -0.74400
O146        O  0.41251425  0.29810810  0.60948579    -0.73900
O147        O  0.36281875  0.30190826  0.66211077    -0.74600
O148        O  0.40889944  0.25344430  0.62637605    -0.74200
O149        O  0.38678759  0.36621901  0.61325080    -0.74800
O150        O  0.35797605  0.27837375  0.58132158    -0.74200
O151        O  0.33467472  0.32632031  0.63210329    -0.74900
O152        O  0.38141065  0.31198239  0.58223425    -0.74300
O153        O  0.32847181  0.29093157  0.61081285    -0.74800
O154        O  0.35203014  0.21676540  0.60908507    -0.74700
O155        O  0.37369092  0.20938427  0.62767042    -0.74500
C156        C  0.37294851  0.27907092  0.66816486     0.77300
C157        C  0.37961090  0.38201574  0.62559039     0.77800
C158        C  0.41866649  0.27214141  0.61719262     0.76800
C159        C  0.36965537  0.29614537  0.57384019     0.77200
C160        C  0.32395151  0.31449519  0.62116325     0.78300
C161        C  0.36166800  0.19737130  0.61819829     0.77300
Zn162      Zn  0.35221228  0.76477614  0.61517350     1.49700
Zn163      Zn  0.38520848  0.81736166  0.61744136     1.49400
Zn164      Zn  0.35487591  0.81824424  0.64603131     1.49100
Zn165      Zn  0.38134701  0.75726151  0.64411866     1.49500
O166        O  0.36836478  0.78957085  0.63047589    -1.83900
O167        O  0.35821798  0.77587299  0.59085179    -0.74600
O168        O  0.38059720  0.86783110  0.62174707    -0.74400
O169        O  0.32938895  0.81671285  0.64001573    -0.73900
O170        O  0.38163248  0.80954118  0.59222890    -0.74600
O171        O  0.32680814  0.77997260  0.61867719    -0.74200
O172        O  0.36138645  0.86736538  0.64299882    -0.74800
O173        O  0.37521116  0.76009339  0.66875719    -0.74200
O174        O  0.41078163  0.80517550  0.62318441    -0.74900
O175        O  0.35724669  0.80428716  0.67075941    -0.74300
O176        O  0.40719319  0.76379787  0.64203748    -0.74800
O177        O  0.37647481  0.70999565  0.63650939    -0.74700
O178        O  0.35499853  0.71300412  0.61752218    -0.74500
C179        C  0.37020562  0.79320732  0.58361642     0.77300
C180        C  0.37083295  0.88351147  0.63236471     0.77800
C181        C  0.32006222  0.80157133  0.62891645     0.76800
C182        C  0.36569129  0.77989144  0.67762057     0.77200
C183        C  0.41715713  0.78287596  0.63326830     0.78300
C184        C  0.36592995  0.69561659  0.62624286     0.77300
Zn185      Zn  0.88356834  0.01533570  0.60968581     1.49700
Zn186      Zn  0.88672114  0.06933193  0.64031886     1.49400
Zn187      Zn  0.86031095  0.08075248  0.60883144     1.49100
Zn188      Zn  0.85162130  0.02269165  0.63589285     1.49500
O189        O  0.87059300  0.04703678  0.62395080    -1.83900
O190        O  0.90890239  0.01469840  0.61608114    -0.74600
O191        O  0.88533009  0.12153647  0.63783157    -0.74400
O192        O  0.86535142  0.07235823  0.58409654    -0.73900
O193        O  0.91209135  0.05340404  0.63647631    -0.74600
O194        O  0.88175312  0.02584614  0.58471908    -0.74200
O195        O  0.86868922  0.12712979  0.61480081    -0.74800
O196        O  0.82751875  0.04353477  0.63074034    -0.74200
O197        O  0.88021862  0.05535935  0.66461568    -0.74900
O198        O  0.83435533  0.08266544  0.61152830    -0.74300
O199        O  0.85587858  0.02487814  0.66116608    -0.74800
O200        O  0.85190573  0.97197877  0.63016203    -0.74700
O201        O  0.87474501  0.96810327  0.61276581    -0.74500
C202        C  0.91851889  0.03066663  0.62664647     0.77300
C203        C  0.87778490  0.14019883  0.62668456     0.77800
C204        C  0.87400220  0.04926666  0.57645450     0.76800
C205        C  0.82304267  0.06748047  0.62063963     0.77200
C206        C  0.86769474  0.03756391  0.67074901     0.78300
C207        C  0.86235410  0.95429960  0.62106714     0.77300
Zn208      Zn  0.88489227  0.51603360  0.64169702     1.49700
Zn209      Zn  0.85889874  0.57687908  0.64858422     1.49400
Zn210      Zn  0.88502546  0.57809128  0.61618888     1.49100
Zn211      Zn  0.85186579  0.52586609  0.61722629     1.49500
O212        O  0.87005193  0.54941833  0.63072645    -1.83900
O213        O  0.88435327  0.52039097  0.66686376    -0.74600
O214        O  0.86604510  0.62593983  0.64638545    -0.74400
O215        O  0.91105436  0.56527023  0.61803937    -0.73900
O216        O  0.86465934  0.56040833  0.67244159    -0.74600
O217        O  0.90990668  0.51970219  0.63462133    -0.74200
O218        O  0.88206324  0.62772618  0.62279948    -0.74800
O219        O  0.85507852  0.53716513  0.59229204    -0.74200
O220        O  0.83273522  0.57756129  0.64548458    -0.74900
O221        O  0.87767088  0.57300848  0.59146176    -0.74300
O222        O  0.82746072  0.54322987  0.62360441    -0.74800
O223        O  0.85343446  0.47376696  0.62005222    -0.74700
O224        O  0.87695238  0.46904191  0.63652615    -0.74500
C225        C  0.87556976  0.53793600  0.67742723     0.77300
C226        C  0.87441278  0.64267830  0.63515415     0.77800
C227        C  0.91861446  0.54053887  0.62560956     0.76800
C228        C  0.86558996  0.55616430  0.58397748     0.77200
C229        C  0.82210800  0.56410854  0.63493690     0.78300
C230        C  0.86453215  0.45549533  0.62812927     0.77300
Zn231      Zn  0.88988196  0.48804828  0.86330288     1.49700
Zn232      Zn  0.89145234  0.43232646  0.89229754     1.49400
Zn233      Zn  0.85693424  0.48163705  0.88882382     1.49100
Zn234      Zn  0.86530114  0.42484686  0.86085072     1.49500
O235        O  0.87582962  0.45686730  0.87667415    -1.83900
O236        O  0.91518872  0.48855887  0.87027659    -0.74600
O237        O  0.88411622  0.44235902  0.91655973    -0.74400
O238        O  0.85699281  0.53254255  0.88227301    -0.73900
O239        O  0.91692375  0.44797819  0.88980762    -0.74600
O240        O  0.88051700  0.53482849  0.86561886    -0.74200
O241        O  0.86131313  0.47755830  0.91424072    -0.74800
O242        O  0.84001185  0.41902996  0.86600746    -0.74200
O243        O  0.89023780  0.38099673  0.88787306    -0.74900
O244        O  0.83270204  0.45973229  0.88429315    -0.74300
O245        O  0.87524224  0.37820282  0.86368436    -0.74800
O246        O  0.86751697  0.43946393  0.83642127    -0.74700
O247        O  0.88827426  0.47880741  0.83833979    -0.74500
C248        C  0.92413291  0.47104321  0.88076308     0.77300
C249        C  0.87223779  0.46087684  0.92331313     0.77800
C250        C  0.86761101  0.54924584  0.87285933     0.76800
C251        C  0.82866567  0.43378315  0.87525749     0.77200
C252        C  0.88376042  0.36378639  0.87557834     0.78300
C253        C  0.87784772  0.46076137  0.82948596     0.77300
Zn254      Zn  0.86228727  0.92455718  0.88634959     1.49700
Zn255      Zn  0.88706740  0.98712871  0.88629838     1.49400
Zn256      Zn  0.89041560  0.93081466  0.85624129     1.49100
Zn257      Zn  0.85673841  0.98174709  0.85818340     1.49500
O258        O  0.87423503  0.95611659  0.87147168    -1.83900
O259        O  0.86514763  0.93476689  0.91122048    -0.74600
O260        O  0.91267340  0.98288979  0.88204596    -0.74400
O261        O  0.88760061  0.87876356  0.85944687    -0.73900
O262        O  0.88312941  0.97896441  0.91139296    -0.74600
O263        O  0.87063785  0.87757681  0.88238770    -0.74200
O264        O  0.91584314  0.94428673  0.86156182    -0.74800
O265        O  0.86253469  0.97803183  0.83326600    -0.74200
O266        O  0.88028511  0.03529452  0.88155158    -0.74900
O267        O  0.88574806  0.94393594  0.83142707    -0.74300
O268        O  0.85791812  0.03256459  0.86349260    -0.74800
O269        O  0.83190746  0.96322652  0.86182506    -0.74700
O270        O  0.83682337  0.92333278  0.88121187    -0.74500
C271        C  0.87394680  0.95705276  0.91929707     0.77300
C272        C  0.92237611  0.96557074  0.87212908     0.77800
C273        C  0.87967202  0.86229466  0.87117135     0.76800
C274        C  0.87430086  0.96319222  0.82445246     0.77200
C275        C  0.86856045  0.04981056  0.87261217     0.78300
C276        C  0.82642997  0.93922720  0.87139448     0.77300
Zn277      Zn  0.11195309  0.07054650  0.88212349     1.49700
Zn278      Zn  0.11783073  0.01253170  0.85432373     1.49400
Zn279      Zn  0.13924807  0.07984971  0.85143338     1.49100
Zn280      Zn  0.14810754  0.02670181  0.88151983     1.49500
O281        O  0.12936425  0.04743699  0.86759448    -1.83900
O282        O  0.08711788  0.05402885  0.87687755    -0.74600
O283        O  0.12148351  0.01807825  0.82934124    -0.74400
O284        O  0.12961485  0.12652731  0.85550208    -0.73900
O285        O  0.09204158  0.01252775  0.85827415    -0.74600
O286        O  0.11333010  0.12192396  0.87879527    -0.74200
O287        O  0.13643582  0.06607195  0.82658290    -0.74800
O288        O  0.17156686  0.05085822  0.87729505    -0.74200
O289        O  0.12734583  0.96687678  0.85983749    -0.74900
O290        O  0.16467262  0.08624316  0.85631400    -0.74300
O291        O  0.14974370  0.97494610  0.87751565    -0.74800
O292        O  0.14247626  0.03332015  0.90636966    -0.74700
O293        O  0.11715539  0.06137493  0.90700631    -0.74500
C294        C  0.08153010  0.03030145  0.86715666     0.77300
C295        C  0.12904229  0.04003963  0.82003113     0.77800
C296        C  0.12078862  0.14007543  0.86746399     0.76800
C297        C  0.17570189  0.07465627  0.86697255     0.77200
C298        C  0.13999695  0.95531298  0.86862333     0.78300
C299        C  0.12992693  0.04697230  0.91463147     0.77300
Zn300      Zn  0.11740305  0.51633795  0.86114056     1.49700
Zn301      Zn  0.14505552  0.57542019  0.85868982     1.49400
Zn302      Zn  0.11623465  0.57581052  0.88814060     1.49100
Zn303      Zn  0.14802182  0.52113852  0.88946203     1.49500
O304        O  0.13180549  0.54705384  0.87453272    -1.83900
O305        O  0.12066241  0.52313433  0.83604482    -0.74600
O306        O  0.13878417  0.62501394  0.86143456    -0.74400
O307        O  0.09052304  0.56478339  0.88412678    -0.73900
O308        O  0.14225419  0.56073865  0.83397021    -0.74600
O309        O  0.09170728  0.51991528  0.86696862    -0.74200
O310        O  0.12086576  0.62570682  0.88367014    -0.74800
O311        O  0.14155968  0.52858717  0.91429274    -0.74200
O312        O  0.17037883  0.57454971  0.86503252    -0.74900
O313        O  0.12056405  0.56773846  0.91298375    -0.74300
O314        O  0.17325211  0.53872464  0.88669826    -0.74800
O315        O  0.14650284  0.46985692  0.88435349    -0.74700
O316        O  0.12499207  0.46872485  0.86520891    -0.74500
C317        C  0.13151264  0.53996101  0.82708177     0.77300
C318        C  0.13000289  0.64129617  0.87257019     0.77800
C319        C  0.08294126  0.54079671  0.87600201     0.76800
C320        C  0.13062488  0.54841500  0.92157914     0.77200
C321        C  0.17974706  0.56059872  0.87646089     0.78300
C322        C  0.13640893  0.45357811  0.87422553     0.77300
Zn323      Zn  0.11208532  0.48846631  0.63850173     1.49700
Zn324      Zn  0.10927241  0.42570888  0.61339163     1.49400
Zn325      Zn  0.14329432  0.47534426  0.61183585     1.49100
Zn326      Zn  0.13738635  0.42590749  0.64381548     1.49500
O327        O  0.12558309  0.45382218  0.62672244    -1.83900
O328        O  0.08647957  0.48680446  0.63255097    -0.74600
O329        O  0.11408227  0.43178173  0.58835538    -0.74400
O330        O  0.14405247  0.52704041  0.61560473    -0.73900
O331        O  0.08377383  0.43994587  0.61697199    -0.74600
O332        O  0.12123381  0.53457219  0.63276926    -0.74200
O333        O  0.13667967  0.46748512  0.58714066    -0.74800
O334        O  0.16301436  0.42186494  0.63839448    -0.74200
O335        O  0.11242510  0.37566864  0.61918950    -0.74900
O336        O  0.16755268  0.45370276  0.61549883    -0.74300
O337        O  0.12919281  0.37724329  0.64230548    -0.74800
O338        O  0.13412216  0.44398576  0.66792132    -0.74700
O339        O  0.11415763  0.48431214  0.66382422    -0.74500
C340        C  0.07699024  0.46576696  0.62434033     0.77300
C341        C  0.12500555  0.44937290  0.57980384     0.77800
C342        C  0.13386995  0.54654340  0.62407949     0.76800
C343        C  0.17304999  0.43251020  0.62661250     0.77200
C344        C  0.12049716  0.36056341  0.63123516     0.78300
C345        C  0.12382833  0.46684790  0.67370350     0.77300
Zn346      Zn  0.13759105  0.92225258  0.60469092     1.49700
Zn347      Zn  0.11024609  0.93075081  0.63557167     1.49400
Zn348      Zn  0.14409834  0.98082375  0.63204306     1.49100
Zn349      Zn  0.11248958  0.98562504  0.60532972     1.49500
O350        O  0.12605176  0.95484535  0.61963135    -1.83900
O351        O  0.13064273  0.87503420  0.61075128    -0.74600
O352        O  0.11680460  0.94293851  0.65992845    -0.74400
O353        O  0.16856647  0.96094743  0.62802357    -0.73900
O354        O  0.11235457  0.87887776  0.63261656    -0.74600
O355        O  0.16366169  0.92270356  0.60775780    -0.74200
O356        O  0.13921949  0.97874994  0.65717668    -0.74800
O357        O  0.12117678  0.03341936  0.60755861    -0.74200
O358        O  0.08473593  0.94655559  0.63250954    -0.74900
O359        O  0.14329429  0.03124672  0.62591151    -0.74300
O360        O  0.08742583  0.98666023  0.61278170    -0.74800
O361        O  0.11333415  0.97298359  0.58045396    -0.74700
O362        O  0.13171479  0.92924012  0.58001147    -0.74500
C363        C  0.12117693  0.86103148  0.62204170     0.77300
C364        C  0.12821084  0.96290780  0.66642900     0.77800
C365        C  0.17408836  0.93789426  0.61787498     0.76800
C366        C  0.13308109  0.04811831  0.61620750     0.77200
C367        C  0.07811143  0.97021355  0.62338495     0.78300
C368        C  0.12172887  0.95015149  0.57232136     0.77300
Zn369      Zn  0.35623549  0.22552355  0.13549144     1.49700
Zn370      Zn  0.38703075  0.23393625  0.10831386     1.49400
Zn371      Zn  0.39100185  0.17706795  0.13767661     1.49100
Zn372      Zn  0.36302084  0.16871029  0.10755268     1.49500
O373        O  0.37442881  0.20130772  0.12247981    -1.83900
O374        O  0.35720543  0.27666267  0.13145929    -0.74600
O375        O  0.41245064  0.23422345  0.11432552    -0.74400
O376        O  0.38476230  0.18707498  0.16233227    -0.73900
O377        O  0.37888850  0.28167082  0.11284449    -0.74600
O378        O  0.36102345  0.21974829  0.16039116    -0.74200
O379        O  0.41619292  0.19434143  0.13404163    -0.74800
O380        O  0.37207475  0.12188095  0.11149688    -0.74200
O381        O  0.38432938  0.22442325  0.08315663    -0.74900
O382        O  0.38968359  0.12525535  0.13396177    -0.74300
O383        O  0.36627527  0.18010051  0.08294266    -0.74800
O384        O  0.33725662  0.16586082  0.11214874    -0.74700
O385        O  0.33166983  0.20683349  0.13082448    -0.74500
C386        C  0.36734244  0.29505559  0.12242131     0.77300
C387        C  0.42226955  0.21806636  0.12461386     0.77800
C388        C  0.37261787  0.20462425  0.16927104     0.76800
C389        C  0.38170881  0.10774886  0.12263480     0.77200
C390        C  0.37521087  0.20248996  0.07510657     0.78300
C391        C  0.32653088  0.18213976  0.12149121     0.77300
Zn392      Zn  0.39072623  0.73426107  0.14487764     1.49700
Zn393      Zn  0.36595646  0.67015179  0.14675439     1.49400
Zn394      Zn  0.36004711  0.72560211  0.11703676     1.49100
Zn395      Zn  0.39423831  0.67620838  0.11693218     1.49500
O396        O  0.37765822  0.70160558  0.13121571    -1.83900
O397        O  0.38692273  0.72753402  0.16988118    -0.74600
O398        O  0.34064227  0.66608084  0.14029090    -0.74400
O399        O  0.35994298  0.77699986  0.12217175    -0.73900
O400        O  0.36782075  0.68505620  0.17149453    -0.74600
O401        O  0.38216106  0.78114214  0.14038395    -0.74200
O402        O  0.33556768  0.70423280  0.12003456    -0.74800
O403        O  0.38901162  0.68459564  0.09209190    -0.74200
O404        O  0.37516925  0.62228927  0.14407280    -0.74900
O405        O  0.36631763  0.72013872  0.09212499    -0.74300
O406        O  0.39249872  0.62537649  0.12145027    -0.74800
O407        O  0.41936347  0.69167717  0.12092539    -0.74700
O408        O  0.41659733  0.73345188  0.13977338    -0.74500
C409        C  0.37701367  0.70821205  0.17860359     0.77300
C410        C  0.33035720  0.67990060  0.12956893     0.77800
C411        C  0.37003156  0.79479936  0.13165466     0.76800
C412        C  0.37785737  0.70284560  0.08415865     0.77200
C413        C  0.38469403  0.60795733  0.13285002     0.78300
C414        C  0.42608440  0.71520056  0.13004804     0.77300
Zn415      Zn  0.38283813  0.26425955  0.35673221     1.49700
Zn416      Zn  0.38309038  0.32521907  0.38373766     1.49400
Zn417      Zn  0.35734954  0.32675654  0.35185555     1.49100
Zn418      Zn  0.35021380  0.27302172  0.38175378     1.49500
O419        O  0.36836980  0.29725509  0.36868663    -1.83900
O420        O  0.40827383  0.26972297  0.36273714    -0.74600
O421        O  0.37951211  0.37575655  0.37884926    -0.74400
O422        O  0.36086515  0.30975201  0.32771370    -0.73900
O423        O  0.40893101  0.31342770  0.38071549    -0.74600
O424        O  0.37997359  0.26778147  0.33140307    -0.74200
O425        O  0.36578388  0.37496691  0.35393513    -0.74800
O426        O  0.32588267  0.29269880  0.37685153    -0.74200
O427        O  0.37692524  0.31596591  0.40839526    -0.74900
O428        O  0.33167206  0.33097657  0.35681927    -0.74300
O429        O  0.35461742  0.27964717  0.40683296    -0.74800
O430        O  0.35137029  0.22153461  0.37781775    -0.74700
O431        O  0.37579279  0.21671606  0.36263116    -0.74500
C432        C  0.41675678  0.29019833  0.37225315     0.77300
C433        C  0.37292120  0.39129466  0.36610606     0.77800
C434        C  0.37052362  0.28610999  0.32169811     0.76800
C435        C  0.32099406  0.31675834  0.36700755     0.77200
C436        C  0.36548305  0.29710297  0.41555571     0.78300
C437        C  0.36300737  0.20324505  0.37052534     0.77300
Zn438      Zn  0.35374232  0.82984987  0.39229130     1.49700
Zn439      Zn  0.34815326  0.77090517  0.36459824     1.49400
Zn440      Zn  0.38373513  0.81697062  0.36445780     1.49100
Zn441      Zn  0.37666627  0.76385985  0.39447829     1.49500
O442        O  0.36558893  0.79533506  0.37872259    -1.83900
O443        O  0.32901380  0.83510520  0.38447012    -0.74600
O444        O  0.35617461  0.77137611  0.34015959    -0.74400
O445        O  0.38249976  0.86888093  0.36648794    -0.73900
O446        O  0.32399424  0.79454025  0.36535627    -0.74600
O447        O  0.36416439  0.87580463  0.38814208    -0.74200
O448        O  0.38021703  0.80345004  0.33968011    -0.74800
O449        O  0.40272855  0.76319858  0.39166498    -0.74200
O450        O  0.34699590  0.72034724  0.37095169    -0.74900
O451        O  0.40828859  0.80119338  0.37151305    -0.74300
O452        O  0.36807777  0.71661773  0.39040196    -0.74800
O453        O  0.37181614  0.77539921  0.41889581    -0.74700
O454        O  0.35423396  0.82029332  0.41762368    -0.74500
C455        C  0.31895994  0.82071805  0.37372842     0.77300
C456        C  0.36886902  0.78493268  0.33209263     0.77800
C457        C  0.37442103  0.88813798  0.37698302     0.76800
C458        C  0.41355616  0.77924032  0.38234905     0.77200
C459        C  0.35648836  0.70273221  0.38104051     0.78300
C460        C  0.36253707  0.79800045  0.42620870     0.77300
Zn461      Zn  0.64726243  0.27347308  0.13345928     1.49700
Zn462      Zn  0.61276854  0.32206480  0.13665189     1.49400
Zn463      Zn  0.64077003  0.33269150  0.10653433     1.49100
Zn464      Zn  0.61649974  0.26832695  0.10598759     1.49500
O465        O  0.62927310  0.29913912  0.12089019    -1.83900
O466        O  0.64113263  0.27381034  0.15833763    -0.74600
O467        O  0.61476585  0.37420978  0.13450270    -0.74400
O468        O  0.66630752  0.33640429  0.11223424    -0.73900
O469        O  0.61773260  0.30716091  0.16103885    -0.74600
O470        O  0.67167369  0.29483308  0.13064537    -0.74200
O471        O  0.63115838  0.37884359  0.11124423    -0.74800
O472        O  0.61935921  0.27998959  0.08129419    -0.74200
O473        O  0.58746955  0.30725680  0.13175919    -0.74900
O474        O  0.63806990  0.32321472  0.08137744    -0.74300
O475        O  0.59094143  0.26877295  0.11132999    -0.74800
O476        O  0.62457133  0.22029854  0.10910400    -0.74700
O477        O  0.64710094  0.22310142  0.12695629    -0.74500
C478        C  0.62923038  0.28734584  0.16748823     0.77300
C479        C  0.62209373  0.39232869  0.12302870     0.77800
C480        C  0.67681340  0.32044246  0.12195170     0.76800
C481        C  0.62859616  0.30180117  0.07337764     0.77200
C482        C  0.58113904  0.28496055  0.12162150     0.78300
C483        C  0.63665185  0.20587114  0.11761651     0.77300
Zn484      Zn  0.64463777  0.82802699  0.14915132     1.49700
Zn485      Zn  0.61817934  0.76737661  0.14529021     1.49400
Zn486      Zn  0.61759631  0.82611134  0.11783034     1.49100
Zn487      Zn  0.65050207  0.77292692  0.11944068     1.49500
O488        O  0.63284714  0.79866276  0.13267168    -1.83900
O489        O  0.64037086  0.81398237  0.17347230    -0.74600
O490        O  0.59292417  0.77105986  0.13902636    -0.74400
O491        O  0.62092241  0.87657005  0.12267755    -0.73900
O492        O  0.62019555  0.77383229  0.17031013    -0.52200
O493        O  0.63764789  0.87693832  0.14582672    -0.74200
O494        O  0.59163579  0.81415759  0.12087446    -0.74800
O495        O  0.64563936  0.77950683  0.09438569    -0.74200
O496        O  0.62555896  0.71973851  0.14128661    -0.74900
O497        O  0.62377757  0.81700636  0.09320599    -0.74300
O498        O  0.64876355  0.72139603  0.12424165    -0.74800
O499        O  0.67540675  0.79115864  0.12419188    -0.74700
O500        O  0.67047832  0.82723623  0.14544825    -0.74500
C501        C  0.62996877  0.79199718  0.17975256     0.77300
C502        C  0.58412019  0.79084567  0.12950817     0.77800
C503        C  0.62897488  0.89267570  0.13443316     0.76800
C504        C  0.63490722  0.79768135  0.08586741     0.77200
C505        C  0.63769345  0.70473996  0.13315995     0.78300
C506        C  0.68092805  0.81281460  0.13511642     0.77300
Zn507      Zn  0.61009907  0.24722606  0.35735442     1.49700
Zn508      Zn  0.60886390  0.18700001  0.38417000     1.49400
Zn509      Zn  0.63401467  0.18318999  0.35148021     1.49100
Zn510      Zn  0.64294678  0.23543078  0.38219455     1.49500
O511        O  0.62411740  0.21318540  0.36892919    -1.83900
O512        O  0.58495692  0.24607814  0.36471248    -0.74600
O513        O  0.61157182  0.13651173  0.37975075    -0.74400
O514        O  0.62794314  0.19766594  0.32726923    -0.73900
O515        O  0.58328154  0.20092410  0.38159647    -0.74600
O516        O  0.61066204  0.24200092  0.33204053    -0.74200
O517        O  0.62667398  0.13454017  0.35560741    -0.74800
O518        O  0.66672836  0.21499912  0.37586994    -0.74200
O519        O  0.61546011  0.19510459  0.40869165    -0.74900
O520        O  0.66017831  0.18208096  0.35373047    -0.74300
O521        O  0.63910218  0.22805058  0.40743863    -0.74800
O522        O  0.64303783  0.28702031  0.37833426    -0.74700
O523        O  0.61961887  0.29335887  0.36176100    -0.74500
C524        C  0.57603262  0.22583539  0.37390425     0.77300
C525        C  0.61879385  0.11964343  0.36779768     0.77800
C526        C  0.61843033  0.22202162  0.32178301     0.76800
C527        C  0.67132943  0.19432244  0.36413267     0.77200
C528        C  0.62767024  0.21174060  0.41601684     0.78300
C529        C  0.63254572  0.30580050  0.36985334     0.77300
Zn530      Zn  0.64065542  0.73623828  0.39351841     1.49700
Zn531      Zn  0.60670514  0.68484758  0.39301307     1.49400
Zn532      Zn  0.60943292  0.74531845  0.36690120     1.49100
Zn533      Zn  0.63510565  0.68360567  0.36259470     1.49500
O534        O  0.62310962  0.71228649  0.37926074    -1.83900
O535        O  0.63555868  0.72650252  0.41832268    -0.74600
O536        O  0.58086376  0.69833082  0.38942295    -0.74400
O537        O  0.61643929  0.79214821  0.37300865    -0.73900
O538        O  0.61212834  0.69265967  0.41780455    -0.74600
O539        O  0.63902760  0.78830759  0.39066820    -0.74200
O540        O  0.58402776  0.74170577  0.37174256    -0.74800
O541        O  0.63050195  0.69774203  0.33820863    -0.74200
O542        O  0.60995569  0.63430137  0.38788792    -0.74900
O543        O  0.61212835  0.74086091  0.34190043    -0.74300
O544        O  0.62822952  0.63483740  0.36588508    -0.74800
O545        O  0.66106759  0.68421941  0.36642703    -0.74700
O546        O  0.66552845  0.71924519  0.38820177    -0.74500
C547        C  0.62372343  0.70943352  0.42598809     0.77300
C548        C  0.57428938  0.72242640  0.38059045     0.77800
C549        C  0.62809179  0.80616674  0.38218772     0.76800
C550        C  0.62085363  0.72133067  0.33220385     0.77200
C551        C  0.61893953  0.61865660  0.37662797     0.78300
C552        C  0.67133908  0.69837188  0.37705853     0.77300
Zn553      Zn  0.85625636  0.08869639  0.38624775     1.49700
Zn554      Zn  0.84976609  0.02832026  0.36008981     1.49400
Zn555      Zn  0.88251223  0.08029182  0.35497935     1.49100
Zn556      Zn  0.88267459  0.02739724  0.38602432     1.49500
O557        O  0.86783831  0.05593667  0.37164615    -1.83900
O558        O  0.83037031  0.08670564  0.38383482    -0.74600
O559        O  0.85332433  0.03113971  0.33482655    -0.74400
O560        O  0.88018900  0.13178569  0.35744554    -0.73900
O561        O  0.82489524  0.04589616  0.36501463    -0.74600
O562        O  0.86278843  0.13588790  0.37994808    -0.74200
O563        O  0.87587093  0.06626801  0.33104749    -0.74800
O564        O  0.90799008  0.03014892  0.37876118    -0.74200
O565        O  0.85247154  0.97789335  0.36613790    -0.74900
O566        O  0.90807094  0.06785989  0.35774718    -0.74300
O567        O  0.87551058  0.97868891  0.38349858    -0.74800
O568        O  0.88090940  0.03970454  0.41105316    -0.74700
O569        O  0.86188395  0.08235298  0.41078017    -0.74500
C570        C  0.81963034  0.06966292  0.37487405     0.77300
C571        C  0.86411540  0.04641948  0.32511619     0.77800
C572        C  0.87185103  0.14969544  0.36830039     0.76800
C573        C  0.91612257  0.04708011  0.36742982     0.77200
C574        C  0.86371470  0.96244871  0.37538274     0.78300
C575        C  0.87186839  0.06211796  0.41884844     0.77300
Zn576      Zn  0.85176606  0.53178881  0.36370821     1.49700
Zn577      Zn  0.85719896  0.58768534  0.39273444     1.49400
Zn578      Zn  0.88023899  0.52190487  0.39351577     1.49100
Zn579      Zn  0.88724036  0.57686265  0.36410971     1.49500
O580        O  0.86917493  0.55461891  0.37835180    -1.83900
O581        O  0.82717945  0.55202465  0.36653776    -0.74600
O582        O  0.86023932  0.57935620  0.41808008    -0.74400
O583        O  0.87272004  0.47471070  0.38745152    -0.73900
O584        O  0.83145766  0.58834102  0.38778274    -0.74600
O585        O  0.85132996  0.48114141  0.36850677    -0.74200
O586        O  0.87521224  0.53096750  0.41835808    -0.74800
O587        O  0.91197849  0.56227928  0.37152801    -0.74200
O588        O  0.86531544  0.63447494  0.38672420    -0.74900
O589        O  0.90627376  0.52285395  0.39096133    -0.74300
O590        O  0.88441063  0.62880506  0.36553769    -0.74800
O591        O  0.88454996  0.56227657  0.33926095    -0.74700
O592        O  0.85915041  0.53457003  0.33901995    -0.74500
C593        C  0.82136131  0.57427189  0.37696951     0.77300
C594        C  0.86755356  0.55515304  0.42621454     0.77800
C595        C  0.86121270  0.46218430  0.37752296     0.76800
C596        C  0.91717249  0.53965974  0.38207306     0.77200
C597        C  0.87519733  0.64749133  0.37542152     0.78300
C598        C  0.87263495  0.54588298  0.33128111     0.77300
Zn599      Zn  0.88678617  0.49823450  0.11461156     1.49700
Zn600      Zn  0.85536422  0.49345566  0.14151691     1.49400
Zn601      Zn  0.86237894  0.43519682  0.11408061     1.49100
Zn602      Zn  0.88979283  0.44520376  0.14533253     1.49500
O603        O  0.87357029  0.46788407  0.12915753    -1.83900
O604        O  0.88133112  0.54619725  0.12053231    -0.74600
O605        O  0.83064880  0.47463686  0.13673968    -0.74400
O606        O  0.86629492  0.44421404  0.08892425    -0.73900
O607        O  0.85742263  0.54440103  0.13665965    -0.74600
O608        O  0.88262936  0.49083146  0.08961053    -0.74200
O609        O  0.83652108  0.43349585  0.11821517    -0.74800
O610        O  0.88684606  0.39338035  0.14336943    -0.74200
O611        O  0.85985971  0.48990790  0.16678625    -0.74900
O612        O  0.87085327  0.38882826  0.11979178    -0.74300
O613        O  0.88455658  0.46040175  0.16980162    -0.74800
O614        O  0.91547435  0.45702596  0.13989949    -0.74700
O615        O  0.91237627  0.49230355  0.11809276    -0.74500
C616        C  0.86943876  0.56114976  0.12905708     0.77300
C617        C  0.82563745  0.44981896  0.12737393     0.77800
C618        C  0.87461900  0.46778685  0.08127815     0.76800
C619        C  0.87936827  0.37527388  0.13194583     0.77200
C620        C  0.87193900  0.47761816  0.17618033     0.78300
C621        C  0.92208565  0.47601395  0.12838608     0.77300
Zn622      Zn  0.86172668  0.93673596  0.10916529     1.49700
Zn623      Zn  0.88795346  0.99757995  0.11133673     1.49400
Zn624      Zn  0.85517627  0.99390041  0.13726649     1.49100
Zn625      Zn  0.88798043  0.94201053  0.14098443     1.49500
O626        O  0.87321765  0.96770520  0.12488115    -1.83900
O627        O  0.86813850  0.94438356  0.08459516    -0.74600
O628        O  0.88064109  0.04569772  0.11487415    -0.74400
O629        O  0.83045790  0.97484680  0.13273480    -0.73900
O630        O  0.88660675  0.98784461  0.08609261    -0.74600
O631        O  0.83575308  0.93930007  0.11136465    -0.74200
O632        O  0.85717500  0.04460732  0.13165965    -0.74800
O633        O  0.88237779  0.95605704  0.16511398    -0.74200
O634        O  0.91311189  0.99419058  0.11855828    -0.74900
O635        O  0.85964439  0.99102611  0.16247769    -0.74300
O636        O  0.91390779  0.95277779  0.13774160    -0.74800
O637        O  0.88348272  0.89103779  0.13877840    -0.74700
O638        O  0.86682216  0.88879821  0.11561557    -0.74500
C639        C  0.87813072  0.96595640  0.07738815     0.77300
C640        C  0.86853058  0.06097387  0.12297101     0.77800
C641        C  0.82514237  0.95325358  0.12169851     0.76800
C642        C  0.87093875  0.97576067  0.17166475     0.77200
C643        C  0.92163470  0.97540093  0.12883502     0.78300
C644        C  0.87465024  0.87412242  0.12786186     0.77300
Zn645      Zn  0.11247867  0.01831740  0.10651240     1.49700
Zn646      Zn  0.14020543  0.07690889  0.10405985     1.49400
Zn647      Zn  0.11444508  0.07452815  0.13622266     1.49100
Zn648      Zn  0.14568199  0.01901812  0.13164770     1.49500
O649        O  0.12811942  0.04710632  0.11984876    -1.83900
O650        O  0.11394212  0.02765391  0.08126691    -0.74600
O651        O  0.13280526  0.12504061  0.10751224    -0.74400
O652        O  0.08830016  0.06444966  0.13385348    -0.73900
O653        O  0.13581813  0.06470141  0.07956764    -0.74600
O654        O  0.08756393  0.02387330  0.11414062    -0.74200
O655        O  0.11851090  0.12557004  0.13213080    -0.74800
O656        O  0.14183142  0.02251098  0.15685010    -0.74200
O657        O  0.16602553  0.07737723  0.10856268    -0.74900
O658        O  0.12098810  0.06144550  0.16056344    -0.74300
O659        O  0.17063925  0.03623954  0.12735206    -0.74800
O660        O  0.14277105  0.96862154  0.12570638    -0.74700
O661        O  0.11874033  0.96931041  0.10969281    -0.74500
C662        C  0.12442405  0.04570287  0.07246596     0.77300
C663        C  0.12542043  0.14119997  0.11955826     0.77800
C664        C  0.07981142  0.04287993  0.12489770     0.76800
C665        C  0.13189902  0.03988269  0.16656747     0.77200
C666        C  0.17632523  0.06062567  0.11814469     0.78300
C667        C  0.13088603  0.95307820  0.11726892     0.77300
Zn668      Zn  0.14208431  0.57759226  0.14295289     1.49700
Zn669      Zn  0.11371838  0.57110513  0.11260777     1.49400
Zn670      Zn  0.14884745  0.52332079  0.11326573     1.49100
Zn671      Zn  0.11826597  0.51321175  0.14041280     1.49500
O672        O  0.13075556  0.54646038  0.12701260    -1.83900
O673        O  0.13189589  0.62428292  0.14068370    -0.74600
O674        O  0.11934853  0.56292983  0.08760534    -0.74400
O675        O  0.17306548  0.54545732  0.11657376    -0.73900
O676        O  0.11518759  0.62220323  0.11751417    -0.74600
O677        O  0.16722711  0.58384923  0.13654433    -0.74200
O678        O  0.14278648  0.52919096  0.08852104    -0.74800
O679        O  0.12677786  0.46655097  0.13557434    -0.74200
O680        O  0.08843851  0.55507717  0.11712597    -0.74900
O681        O  0.14945659  0.47189009  0.11804780    -0.74300
O682        O  0.09253631  0.51493611  0.13656063    -0.74800
O683        O  0.12204642  0.51931055  0.16515227    -0.74700
O684        O  0.14071572  0.56221932  0.16764052    -0.74500
C685        C  0.12253676  0.63902299  0.12947972     0.77300
C686        C  0.13119754  0.54547797  0.08012234     0.77800
C687        C  0.17780434  0.57034403  0.12600851     0.76800
C688        C  0.13927260  0.45353422  0.12710413     0.77200
C689        C  0.08238270  0.53250735  0.12723364     0.78300
C690        C  0.13157533  0.53853889  0.17427405     0.77300
Zn691      Zn  0.14226676  0.48513244  0.38812823     1.49700
Zn692      Zn  0.13698251  0.43177940  0.35785554     1.49400
Zn693      Zn  0.10890806  0.43213048  0.38884536     1.49100
Zn694      Zn  0.11061059  0.49160050  0.36169083     1.49500
O695        O  0.12475238  0.45992429  0.37446416    -1.83900
O696        O  0.16731742  0.46861647  0.38317218    -0.74600
O697        O  0.12949876  0.38349193  0.36039598    -0.74400
O698        O  0.11514421  0.43958476  0.41373450    -0.73900
O699        O  0.16274373  0.43157812  0.36230915    -0.74600
O700        O  0.13749314  0.47608739  0.41300200    -0.74200
O701        O  0.11198685  0.38155635  0.38298097    -0.74800
O702        O  0.08534554  0.48664531  0.36659704    -0.74200
O703        O  0.13329179  0.44647101  0.33344037    -0.74900
O704        O  0.08287180  0.44568499  0.38578899    -0.74300
O705        O  0.11347696  0.48719188  0.33661770    -0.74800
O706        O  0.11690569  0.53888522  0.36753218    -0.74700
O707        O  0.14021596  0.53687027  0.38439957    -0.74500
C708        C  0.17306668  0.44661103  0.37257123     0.77300
C709        C  0.12039592  0.36669043  0.37103126     0.77800
C710        C  0.12660444  0.45787741  0.42130947     0.76800
C711        C  0.07594002  0.46828487  0.37622744     0.77200
C712        C  0.12313020  0.46888652  0.32715591     0.78300
C713        C  0.12872156  0.55380749  0.37613775     0.77300
Zn714      Zn  0.10709347  0.99085231  0.38069824     1.49700
Zn715      Zn  0.14030750  0.98582867  0.35549639     1.49400
Zn716      Zn  0.13165804  0.92788409  0.38279607     1.49100
Zn717      Zn  0.10663102  0.93614688  0.35054555     1.49500
O718        O  0.12145061  0.96036965  0.36712605    -1.83900
O719        O  0.11609406  0.03802074  0.37881368    -0.74600
O720        O  0.16424116  0.96281768  0.35944686    -0.74400
O721        O  0.12721854  0.93876166  0.40747306    -0.73900
O722        O  0.14018940  0.03604671  0.36292374    -0.74600
O723        O  0.10751940  0.98004092  0.40575215    -0.74200
O724        O  0.15732783  0.92381953  0.37873362    -0.74800
O725        O  0.10872643  0.88455493  0.35342150    -0.74200
O726        O  0.13582086  0.98555544  0.33007631    -0.74900
O727        O  0.12259204  0.88126371  0.37821121    -0.74300
O728        O  0.11345270  0.94986068  0.32656414    -0.74800
O729        O  0.08098224  0.94964324  0.35334518    -0.74700
O730        O  0.08218645  0.99076970  0.37275861    -0.74500
C731        C  0.12913438  0.05264242  0.37191135     0.77300
C732        C  0.16850814  0.93781013  0.36899687     0.77800
C733        C  0.11673559  0.95961062  0.41457141     0.76800
C734        C  0.11486293  0.86707858  0.36574604     0.77200
C735        C  0.12488898  0.97019821  0.32045851     0.78300
C736        C  0.07355580  0.97273270  0.36221995     0.77300
C737        C  0.11378440  0.82940730  0.36563651    -0.03000
C738        C  0.11012876  0.81124161  0.35064996    -0.05600
C739        C  0.11102812  0.77557343  0.35047883    -0.20700
C740        C  0.11569757  0.75751038  0.36521879     0.25000
C741        C  0.11858150  0.77566768  0.38036057    -0.18200
C742        C  0.11771054  0.81115287  0.38053349    -0.08200
C743        C  0.11690202  0.71977183  0.36459586    -0.18500
C744        C  0.12697836  0.70143026  0.37534330    -0.23300
C745        C  0.12745594  0.66357424  0.37535407     0.27100
C746        C  0.14199697  0.64651374  0.38234377    -0.20100
C747        C  0.14257424  0.61078070  0.38279346    -0.09700
C748        C  0.12854372  0.59156706  0.37629726    -0.10300
C749        C  0.11388923  0.60879780  0.36963448    -0.03200
C750        C  0.11329598  0.64423816  0.36924681    -0.18300
H751        H  0.10707184  0.82458269  0.33897881     0.10800
H752        H  0.10845353  0.76208679  0.33871374     0.10900
H753        H  0.12143180  0.76261463  0.39214408     0.10500
H754        H  0.12032221  0.82434384  0.39237059     0.11600
H755        H  0.10971338  0.70696047  0.35453645     0.11700
H756        H  0.13556276  0.71450597  0.38422695     0.13600
H757        H  0.15297667  0.66087946  0.38736555     0.10100
H758        H  0.15399674  0.59825760  0.38806961     0.12200
H759        H  0.10267768  0.59486883  0.36479564     0.08900
H760        H  0.10153491  0.65625686  0.36444617     0.11600
C761        C  0.12036464  0.32902286  0.36952530    -0.03000
C762        C  0.12813381  0.31348956  0.35526712    -0.05600
C763        C  0.12967973  0.27814655  0.35423244    -0.20700
C764        C  0.12372074  0.25737866  0.36747705     0.25000
C765        C  0.11538920  0.27267902  0.38154026    -0.18200
C766        C  0.11373090  0.30821032  0.38253900    -0.08200
C767        C  0.12623181  0.21997887  0.36589614    -0.18500
C768        C  0.12740310  0.19891407  0.37931598    -0.23300
C769        C  0.12945338  0.16146387  0.37755419     0.27100
C770        C  0.12231843  0.14057785  0.39019105    -0.20100
C771        C  0.12283223  0.10521181  0.38855791    -0.09700
C772        C  0.13082246  0.08984920  0.37438448    -0.10300
C773        C  0.13887870  0.11062014  0.36215968    -0.03200
C774        C  0.13814611  0.14620155  0.36368321    -0.18300
H775        H  0.13330118  0.32868671  0.34494033     0.10800
H776        H  0.13593408  0.26701364  0.34318139     0.10900
H777        H  0.11006063  0.25739806  0.39173400     0.10500
H778        H  0.10759714  0.31938089  0.39363344     0.11600
H779        H  0.12753088  0.20967177  0.35314679     0.11700
H780        H  0.12604913  0.20905607  0.39208668     0.13600
H781        H  0.11577476  0.15167974  0.40109257     0.10100
H782        H  0.11664578  0.08982594  0.39827574     0.12200
H783        H  0.14514393  0.09942246  0.35113842     0.08900
H784        H  0.14431482  0.16159620  0.35398502     0.11600
C785        C  0.12253587  0.47448684  0.30860562    -0.03000
C786        C  0.10796603  0.49079366  0.30130299    -0.05600
C787        C  0.10759023  0.49793336  0.28395252    -0.20700
C788        C  0.12191024  0.48967236  0.27359619     0.25000
C789        C  0.13639941  0.47276294  0.28077365    -0.18200
C790        C  0.13665086  0.46504426  0.29814327    -0.08200
C791        C  0.12098349  0.49822692  0.25530473    -0.18500
C792        C  0.13513243  0.50626381  0.24591340    -0.23300
C793        C  0.13376163  0.51544752  0.22766897     0.27100
C794        C  0.14622941  0.53739412  0.22041384    -0.20100
C795        C  0.14532043  0.54593211  0.20314504    -0.09700
C796        C  0.13206970  0.53213823  0.19279740    -0.10300
C797        C  0.11963623  0.51014165  0.20011139    -0.03200
C798        C  0.12048260  0.50182612  0.21729773    -0.18300
H799        H  0.09682935  0.49810845  0.30902602     0.10800
H800        H  0.09620023  0.51056796  0.27865203     0.10900
H801        H  0.14743191  0.46521876  0.27298435     0.10500
H802        H  0.14801992  0.45237422  0.30344736     0.11600
H803        H  0.10799709  0.50020768  0.24971811     0.11700
H804        H  0.14793676  0.50782494  0.25192342     0.13600
H805        H  0.15666981  0.54797188  0.22813437     0.10100
H806        H  0.15518076  0.56266437  0.19782904     0.12200
H807        H  0.10931306  0.49888108  0.19248368     0.08900
H808        H  0.11096587  0.48400449  0.22228452     0.11600
C809        C  0.12112238  0.67671866  0.13011935    -0.03000
C810        C  0.12830529  0.69473364  0.14394079    -0.05600
C811        C  0.12902971  0.73027323  0.14382739    -0.20700
C812        C  0.12275457  0.74879741  0.12986854     0.25000
C813        C  0.11479363  0.73093080  0.11634260    -0.18200
C814        C  0.11401876  0.69523857  0.11647627    -0.08200
C815        C  0.12490115  0.78651630  0.13004892    -0.18500
C816        C  0.12457827  0.80607169  0.11600098    -0.23300
C817        C  0.12707094  0.84361989  0.11641397     0.27100
C818        C  0.11889588  0.86336832  0.10387947    -0.20100
C819        C  0.12048897  0.89881095  0.10399050    -0.09700
C820        C  0.13060847  0.91535208  0.11647412    -0.10300
C821        C  0.13939557  0.89553923  0.12866361    -0.03200
C822        C  0.13760285  0.85998405  0.12868357    -0.18300
H823        H  0.13379941  0.68134494  0.15473066     0.10800
H824        H  0.13499842  0.74331402  0.15451413     0.10900
H825        H  0.10918834  0.74421259  0.10560938     0.10500
H826        H  0.10829618  0.68214970  0.10568819     0.11600
H827        H  0.12735484  0.79845240  0.14228127     0.11700
H828        H  0.12197688  0.79462074  0.10370608     0.13600
H829        H  0.11090511  0.85136878  0.09417470     0.10100
H830        H  0.11363747  0.91332179  0.09435010     0.12200
H831        H  0.14729724  0.90755924  0.13842135     0.08900
H832        H  0.14456438  0.84544572  0.13821753     0.11600
C833        C  0.14151339  0.41621953  0.12809870    -0.03000
C834        C  0.13652320  0.39921747  0.14304005    -0.05600
C835        C  0.13630917  0.36372932  0.14370988    -0.20700
C836        C  0.14065478  0.34440294  0.12935040     0.25000
C837        C  0.14644384  0.36128063  0.11457575    -0.18200
C838        C  0.14698507  0.39700705  0.11400975    -0.08200
C839        C  0.13862884  0.30685607  0.13030192    -0.18500
C840        C  0.13380277  0.28767717  0.11690203    -0.23300
C841        C  0.13057209  0.25036904  0.11797350     0.27100
C842        C  0.13219055  0.23082648  0.10314292    -0.20100
C843        C  0.12992464  0.19554128  0.10361040    -0.09700
C844        C  0.12571597  0.17893859  0.11891534    -0.10300
C845        C  0.12323266  0.19862352  0.13363214    -0.03200
C846        C  0.12564820  0.23401591  0.13319003    -0.18300
H847        H  0.13241366  0.41345599  0.15415238     0.10800
H848        H  0.13204278  0.35133510  0.15528954     0.10900
H849        H  0.15040787  0.34700157  0.10344812     0.10500
H850        H  0.15092820  0.40956153  0.10237444     0.11600
H851        H  0.14013728  0.29517223  0.14270624     0.11700
H852        H  0.13228273  0.29961127  0.10454239     0.13600
H853        H  0.13566742  0.24280293  0.09121102     0.10100
H854        H  0.13177524  0.18116205  0.09198914     0.12200
H855        H  0.11991768  0.18658632  0.14558260     0.08900
H856        H  0.12359059  0.24834371  0.14476514     0.11600
C857        C  0.13304472  0.03411050  0.18517917    -0.03000
C858        C  0.14787999  0.01800618  0.19213228    -0.05600
C859        C  0.14885303  0.01106144  0.20952440    -0.20700
C860        C  0.13488124  0.01928217  0.22034691     0.25000
C861        C  0.12006432  0.03571900  0.21348861    -0.18200
C862        C  0.11920973  0.04323400  0.19607913    -0.08200
C863        C  0.13644024  0.01112612  0.23874438    -0.18500
C864        C  0.12260114  0.00265214  0.24849207    -0.23300
C865        C  0.12415144  0.99324922  0.26676715     0.27100
C866        C  0.11143250  0.97181321  0.27394814    -0.20100
C867        C  0.11196977  0.96352954  0.29123658    -0.09700
C868        C  0.12512867  0.97693438  0.30185471    -0.10300
C869        C  0.13796203  0.99824434  0.29463601    -0.03200
C870        C  0.13749920  0.00630267  0.27729699    -0.18300
H871        H  0.15879906  0.01076490  0.18411003     0.10800
H872        H  0.16046308  0.99866641  0.21450566     0.10900
H873        H  0.10923826  0.04314888  0.22156995     0.10500
H874        H  0.10760535  0.05563386  0.19110488     0.11600
H875        H  0.14956274  0.00976290  0.24407138     0.11700
H876        H  0.10971757  0.00071092  0.24266468     0.13600
H877        H  0.10097591  0.96151868  0.26614934     0.10100
H878        H  0.10183664  0.94715716  0.29634523     0.12200
H879        H  0.14822093  0.00920892  0.30244463     0.08900
H880        H  0.14729186  0.02356398  0.27232418     0.11600
C881        C  0.94083197  0.98074075  0.13053849    -0.03000
C882        C  0.95123070  0.95902158  0.14056026    -0.05600
C883        C  0.96934226  0.96447061  0.14195931    -0.20700
C884        C  0.97733954  0.99207648  0.13367494     0.25000
C885        C  0.96693041  0.01391600  0.12376864    -0.18200
C886        C  0.94892247  0.00827035  0.12220089    -0.08200
C887        C  0.99668906  0.99603579  0.13436880    -0.18500
C888        C  0.00477534  0.02648942  0.13314880    -0.23300
C889        C  0.02409827  0.02989514  0.13162480     0.27100
C890        C  0.03253084  0.05902323  0.13804976    -0.20100
C891        C  0.05066423  0.06333319  0.13603542    -0.09700
C892        C  0.06060662  0.03893420  0.12716642    -0.10300
C893        C  0.05205402  0.01005040  0.12054680    -0.03200
C894        C  0.03404932  0.00550970  0.12279803    -0.18300
H895        H  0.94541678  0.93764025  0.14717209     0.10800
H896        H  0.97713955  0.94708423  0.14952206     0.10900
H897        H  0.97273909  0.03482290  0.11679923     0.10500
H898        H  0.94134241  0.02551550  0.11436460     0.11600
H899        H  0.00449802  0.97309731  0.13594246     0.11700
H900        H  0.99703800  0.04972971  0.13333414     0.13600
H901        H  0.02507715  0.07838037  0.14470390     0.10100
H902        H  0.05685476  0.08589684  0.14123782     0.12200
H903        H  0.05929866  0.99076003  0.11364005     0.08900
H904        H  0.02787685  0.98328967  0.11723366     0.11600
C905        C  0.87248489  0.83682316  0.12965032    -0.03000
C906        C  0.85960268  0.81995957  0.11996263    -0.05600
C907        C  0.85659761  0.78519970  0.12203459    -0.20700
C908        C  0.86659870  0.76629226  0.13356611     0.25000
C909        C  0.87945749  0.78296350  0.14338178    -0.18200
C910        C  0.88231076  0.81802535  0.14149209    -0.08200
C911        C  0.86339584  0.72918285  0.13476027    -0.18500
C912        C  0.87644543  0.70682219  0.13726583    -0.23300
C913        C  0.87397301  0.66962630  0.13531621     0.27100
C914        C  0.88782086  0.65047868  0.12863485    -0.20100
C915        C  0.88603081  0.61550299  0.12618329    -0.09700
C916        C  0.87043007  0.59865843  0.13070396    -0.10300
C917        C  0.85657271  0.61773782  0.13763287    -0.03200
C918        C  0.85828308  0.65303102  0.13983323    -0.18300
H919        H  0.85160582  0.83371434  0.11089295     0.10800
H920        H  0.84659719  0.77290535  0.11438694     0.10900
H921        H  0.88712629  0.76906563  0.15265007     0.10500
H922        H  0.89214756  0.83039199  0.14929128     0.11600
H923        H  0.85041882  0.71987218  0.13142003     0.11700
H924        H  0.88977529  0.71615552  0.13878163     0.13600
H925        H  0.90002697  0.66271267  0.12510680     0.10100
H926        H  0.89706728  0.60155273  0.12102237     0.12200
H927        H  0.84448625  0.60539884  0.14140710     0.08900
H928        H  0.84748702  0.66714204  0.14533025     0.11600
C929        C  0.87973423  0.33756223  0.13274211    -0.03000
C930        C  0.88483927  0.32009404  0.14752346    -0.05600
C931        C  0.88324756  0.28450081  0.14842065    -0.20700
C932        C  0.87671870  0.26579657  0.13452884     0.25000
C933        C  0.87178873  0.28342626  0.11973665    -0.18200
C934        C  0.87341167  0.31869044  0.11882939    -0.08200
C935        C  0.87448907  0.22822005  0.13592438    -0.18500
C936        C  0.87427249  0.20771457  0.12217121    -0.23300
C937        C  0.87195477  0.17021827  0.12279361     0.27100
C938        C  0.87839138  0.15093239  0.10915625    -0.20100
C939        C  0.87676056  0.11557818  0.10905924    -0.09700
C940        C  0.86835055  0.09862070  0.12248029    -0.10300
C941        C  0.86127473  0.11790132  0.13588809    -0.03200
C942        C  0.86311636  0.15347122  0.13609249    -0.18300
H943        H  0.88958163  0.33395599  0.15851566     0.10800
H944        H  0.88699460  0.27156746  0.16002049     0.10900
H945        H  0.86609725  0.27036367  0.10895353     0.10500
H946        H  0.86924175  0.33126717  0.10726650     0.11600
H947        H  0.87363101  0.21723217  0.14854726     0.11700
H948        H  0.87690986  0.21850375  0.10974692     0.13600
H949        H  0.88503167  0.16322807  0.09865278     0.10100
H950        H  0.88228241  0.10142400  0.09851286     0.12200
H951        H  0.85479254  0.10542962  0.14642309     0.08900
H952        H  0.85754668  0.16768289  0.14657081     0.11600
C953        C  0.94135645  0.47999588  0.12665809    -0.03000
C954        C  0.94827278  0.49511383  0.11190309    -0.05600
C955        C  0.96624450  0.50082300  0.11026637    -0.20700
C956        C  0.97780864  0.49206217  0.12338978     0.25000
C957        C  0.97102189  0.47606905  0.13803062    -0.18200
C958        C  0.95295173  0.47006427  0.13962019    -0.08200
C959        C  0.99677198  0.49976767  0.12106862    -0.18500
C960        C  0.00809567  0.50389686  0.13403572    -0.23300
C961        C  0.02699950  0.51194862  0.13167145     0.27100
C962        C  0.03876275  0.50211261  0.14443056    -0.20100
C963        C  0.05664727  0.50886865  0.14287042    -0.09700
C964        C  0.06324568  0.52625769  0.12861462    -0.10300
C965        C  0.05145299  0.53695815  0.11597216    -0.03200
C966        C  0.03348314  0.52977072  0.11744097    -0.18300
H967        H  0.93975984  0.50277951  0.10156760     0.10800
H968        H  0.97109936  0.51276283  0.09878583     0.10900
H969        H  0.97956295  0.46787302  0.14820889     0.10500
H970        H  0.94804013  0.45816618  0.15107838     0.11600
H971        H  0.00138739  0.50305311  0.10812932     0.11700
H972        H  0.00356013  0.50056312  0.14699054     0.13600
H973        H  0.03411935  0.48873104  0.15559112     0.10100
H974        H  0.06532768  0.50056861  0.15295211     0.12200
H975        H  0.05613099  0.55055822  0.10490190     0.08900
H976        H  0.02473591  0.53869568  0.10757569     0.11600
C977        C  0.93613645  0.53160406  0.38392299    -0.03000
C978        C  0.94167716  0.50754230  0.39606774    -0.05600
C979        C  0.95930009  0.49804768  0.39728781    -0.20700
C980        C  0.97184046  0.51198274  0.38630141     0.25000
C981        C  0.96644104  0.53681408  0.37445080    -0.18200
C982        C  0.94877488  0.54644957  0.37326675    -0.08200
C983        C  0.99040817  0.50047330  0.38781498    -0.18500
C984        C  0.00170958  0.50112664  0.37467985    -0.23300
C985        C  0.02051425  0.49098663  0.37568131     0.27100
C986        C  0.03173081  0.50293603  0.36293080    -0.20100
C987        C  0.04952609  0.49497007  0.36312166    -0.09700
C988        C  0.05670361  0.47441846  0.37601337    -0.10300
C989        C  0.04546525  0.46156394  0.38863050    -0.03200
C990        C  0.02750875  0.46981916  0.38850529    -0.18300
H991        H  0.93234597  0.49564825  0.40456585     0.10800
H992        H  0.96309705  0.47921918  0.40665327     0.10900
H993        H  0.97580494  0.54913638  0.36617088     0.10500
H994        H  0.94499462  0.56522039  0.36387828     0.11600
H995        H  0.99463684  0.49062736  0.40002204     0.11700
H996        H  0.99714201  0.51045272  0.36247377     0.13600
H997        H  0.02674757  0.51902185  0.35283736     0.10100
H998        H  0.05770817  0.50520298  0.35310783     0.12200
H999        H  0.05058162  0.44561197  0.39869981     0.08900
H1000       H  0.01922807  0.45935074  0.39834412     0.11600
C1001       C  0.87460054  0.53879986  0.31274181    -0.03000
C1002       C  0.88961834  0.54920897  0.30374431    -0.05600
C1003       C  0.89162955  0.54106069  0.28646815    -0.20700
C1004       C  0.87864068  0.52260860  0.27770682     0.25000
C1005       C  0.86371349  0.51190442  0.28677277    -0.18200
C1006       C  0.86171282  0.51999309  0.30399833    -0.08200
C1007       C  0.88123979  0.51413508  0.25932385    -0.18500
C1008       C  0.86778591  0.50798427  0.24856177    -0.23300
C1009       C  0.86967427  0.50007019  0.23007235     0.27100
C1010       C  0.85511449  0.50535384  0.21947108    -0.20100
C1011       C  0.85589591  0.49784944  0.20211672    -0.09700
C1012       C  0.87122470  0.48431280  0.19482879    -0.10300
C1013       C  0.88579501  0.47847095  0.20544603    -0.03200
C1014       C  0.88506237  0.48634322  0.22288171    -0.18300
H1015       H  0.89990710  0.56340278  0.31008109     0.10800
H1016       H  0.90335279  0.54934591  0.27989898     0.10900
H1017       H  0.85367399  0.49659743  0.28075497     0.10500
H1018       H  0.85010143  0.51104802  0.31052896     0.11600
H1019       H  0.89453476  0.51468655  0.25442937     0.11700
H1020       H  0.85447980  0.51056608  0.25325826     0.13600
H1021       H  0.84304496  0.51560486  0.22462663     0.10100
H1022       H  0.84439397  0.50262962  0.19439508     0.12200
H1023       H  0.89781280  0.46810714  0.20025392     0.08900
H1024       H  0.89643948  0.48113487  0.23067493     0.11600
C1025       C  0.86369170  0.92478078  0.37659208    -0.03000
C1026       C  0.87216953  0.90896497  0.39034148    -0.05600
C1027       C  0.87354979  0.87358148  0.39114274    -0.20700
C1028       C  0.86684880  0.85308778  0.37806967     0.25000
C1029       C  0.85812463  0.86866748  0.36435020    -0.18200
C1030       C  0.85645380  0.90428292  0.36368675    -0.08200
C1031       C  0.86853112  0.81559964  0.37977268    -0.18500
C1032       C  0.87005913  0.79392043  0.36656456    -0.23300
C1033       C  0.87191713  0.75651609  0.36912878     0.27100
C1034       C  0.88136173  0.73673479  0.35737439    -0.20100
C1035       C  0.88304208  0.70137980  0.35960633    -0.09700
C1036       C  0.87508279  0.68515208  0.37354205    -0.10300
C1037       C  0.86561106  0.70510570  0.38522513    -0.03200
C1038       C  0.86398569  0.74019823  0.38302363    -0.18300
H1039       H  0.87783406  0.92400910  0.40051185     0.10800
H1040       H  0.88014406  0.86216287  0.40192832     0.10900
H1041       H  0.85243489  0.85341642  0.35428335     0.10500
H1042       H  0.84989872  0.91579899  0.35291396     0.11600
H1043       H  0.86967751  0.80573558  0.39261575     0.11700
H1044       H  0.87079114  0.80385544  0.35370694     0.13600
H1045       H  0.88746920  0.74867427  0.34647787     0.10100
H1046       H  0.89023612  0.68670826  0.35026210     0.12200
H1047       H  0.85909965  0.69352477  0.39599460     0.08900
H1048       H  0.85610690  0.75432377  0.39203837     0.11600
C1049       C  0.87222811  0.18732445  0.36749453    -0.03000
C1050       C  0.88447657  0.20476279  0.35740223    -0.05600
C1051       C  0.88460413  0.24045931  0.35705161    -0.20700
C1052       C  0.87227100  0.25916230  0.36646888     0.25000
C1053       C  0.86009732  0.24167438  0.37659011    -0.18200
C1054       C  0.86009542  0.20622282  0.37710444    -0.08200
C1055       C  0.87295743  0.29684609  0.36649425    -0.18500
C1056       C  0.85856917  0.31620194  0.36877920    -0.23300
C1057       C  0.85941839  0.35361499  0.37089598     0.27100
C1058       C  0.84523728  0.37380594  0.36562661    -0.20100
C1059       C  0.84562757  0.40917289  0.36789588    -0.09700
C1060       C  0.86004394  0.42475377  0.37587882    -0.10300
C1061       C  0.87401747  0.40432588  0.38152644    -0.03200
C1062       C  0.87374239  0.36916738  0.37901886    -0.18300
H1063       H  0.89405284  0.19087031  0.34996561     0.10800
H1064       H  0.89427620  0.25350095  0.34936446     0.10900
H1065       H  0.85081106  0.25531800  0.38446409     0.10500
H1066       H  0.85052147  0.19361541  0.38507914     0.11600
H1067       H  0.88561281  0.30890008  0.36450307     0.11700
H1068       H  0.84569593  0.30435323  0.36896041     0.13600
H1069       H  0.83395243  0.36222042  0.35956063     0.10100
H1070       H  0.83467862  0.42428844  0.36342148     0.12200
H1071       H  0.88534734  0.41556528  0.38766926     0.08900
H1072       H  0.88462374  0.35416801  0.38371953     0.11600
C1073       C  0.05452617  0.97911297  0.36040481    -0.03000
C1074       C  0.04316657  0.95370319  0.35431198    -0.05600
C1075       C  0.02505513  0.95949876  0.35367635    -0.20700
C1076       C  0.01801332  0.99100157  0.35873942     0.25000
C1077       C  0.02945811  0.01665524  0.36448993    -0.18200
C1078       C  0.04748742  0.01070931  0.36534872    -0.08200
C1079       C  0.99867145  0.99541376  0.35919775    -0.18500
C1080       C  0.99072212  0.02603428  0.35829760    -0.23300
C1081       C  0.97151619  0.03051922  0.36042803     0.27100
C1082       C  0.96317010  0.05834212  0.35268298    -0.20100
C1083       C  0.94518178  0.06380657  0.35492110    -0.09700
C1084       C  0.93524315  0.04188157  0.36524977    -0.10300
C1085       C  0.94368608  0.01435361  0.37322364    -0.03200
C1086       C  0.96160372  0.00868859  0.37082861    -0.18300
H1087       H  0.04822281  0.92905553  0.35050904     0.10800
H1088       H  0.01649309  0.93921124  0.34936888     0.10900
H1089       H  0.02452393  0.04092398  0.36893900     0.10500
H1090       H  0.05593062  0.03081736  0.37006567     0.11600
H1091       H  0.99073500  0.97251856  0.36017277     0.11700
H1092       H  0.99843529  0.04863299  0.35557682     0.13600
H1093       H  0.97057452  0.07576770  0.34479062     0.10100
H1094       H  0.93908452  0.08530831  0.34864239     0.12200
H1095       H  0.93642598  0.99701479  0.38127835     0.08900
H1096       H  0.96770758  0.98763266  0.37744241     0.11600
C1097       C  0.86314603  0.04008686  0.30659632    -0.03000
C1098       C  0.84793160  0.02585811  0.29942374    -0.05600
C1099       C  0.84721922  0.01817763  0.28210619    -0.20700
C1100       C  0.86178635  0.02388619  0.27162926     0.25000
C1101       C  0.87696809  0.03859126  0.27871235    -0.18200
C1102       C  0.87760207  0.04673449  0.29603190    -0.08200
C1103       C  0.86039478  0.01523875  0.25331370    -0.18500
C1104       C  0.87424448  0.00648941  0.24364952    -0.23300
C1105       C  0.87263099  0.99763181  0.22534589     0.27100
C1106       C  0.88522123  0.97625580  0.21789702    -0.20100
C1107       C  0.88442123  0.96832154  0.20057098    -0.09700
C1108       C  0.87109480  0.98200802  0.19026262    -0.10300
C1109       C  0.85845869  0.00334561  0.19775135    -0.03200
C1110       C  0.85922347  0.01114900  0.21506893    -0.18300
H1111       H  0.83654466  0.02061192  0.30721394     0.10800
H1112       H  0.83531483  0.00724054  0.27691422     0.10900
H1113       H  0.88826985  0.04423229  0.27089766     0.10500
H1114       H  0.88950571  0.05767931  0.30120663     0.11600
H1115       H  0.84729961  0.01417947  0.24790166     0.11700
H1116       H  0.88711259  0.00416616  0.24947453     0.13600
H1117       H  0.89575294  0.96570825  0.22551310     0.10100
H1118       H  0.89442774  0.95198637  0.19520298     0.12200
H1119       H  0.84811383  0.01460245  0.19016039     0.08900
H1120       H  0.84959083  0.02854298  0.22021060     0.11600
C1121       C  0.69023140  0.68890512  0.37669596    -0.03000
C1122       C  0.70200495  0.70132591  0.38897592    -0.05600
C1123       C  0.71939817  0.68980305  0.38936672    -0.20700
C1124       C  0.72539090  0.66538286  0.37763694     0.25000
C1125       C  0.71379212  0.65388806  0.36496116    -0.18200
C1126       C  0.69644864  0.66547417  0.36452705    -0.08200
C1127       C  0.74383697  0.65304679  0.37891014    -0.18500
C1128       C  0.74939119  0.62263881  0.37284557    -0.23300
C1129       C  0.76778328  0.60996102  0.37446214     0.27100
C1130       C  0.77354718  0.58358720  0.36369411    -0.20100
C1131       C  0.79082216  0.57140989  0.36459710    -0.09700
C1132       C  0.80269054  0.58518129  0.37643223    -0.10300
C1133       C  0.79673857  0.61081019  0.38755210    -0.03200
C1134       C  0.77954533  0.62295723  0.38664014    -0.18300
H1135       H  0.69770104  0.71942101  0.39849896     0.10800
H1136       H  0.72811439  0.69944963  0.39913442     0.10900
H1137       H  0.71801821  0.63611833  0.35528095     0.10500
H1138       H  0.68782140  0.65559857  0.35474849     0.11600
H1139       H  0.75297002  0.66962822  0.38548971     0.11700
H1140       H  0.74017830  0.60613534  0.36629401     0.13600
H1141       H  0.76472110  0.57271490  0.35434902     0.10100
H1142       H  0.79492666  0.55154244  0.35590378     0.12200
H1143       H  0.80543669  0.62183090  0.39696041     0.08900
H1144       H  0.77559971  0.64225881  0.39566369     0.11600
C1145       C  0.62834504  0.84396010  0.38280303    -0.03000
C1146       C  0.63887867  0.86211864  0.39436379    -0.05600
C1147       C  0.63820364  0.89789035  0.39491102    -0.20700
C1148       C  0.62720607  0.91601127  0.38376764     0.25000
C1149       C  0.61652956  0.89770976  0.37243611    -0.18200
C1150       C  0.61715566  0.86229458  0.37191483    -0.08200
C1151       C  0.62660579  0.95386664  0.38432202    -0.18500
C1152       C  0.62301400  0.97252085  0.37036544    -0.23300
C1153       C  0.62172641  0.01022352  0.37020888     0.27100
C1154       C  0.62504663  0.02743870  0.35493434    -0.20100
C1155       C  0.62376672  0.06288898  0.35406645    -0.09700
C1156       C  0.61878778  0.08191428  0.36840836    -0.10300
C1157       C  0.61496077  0.06460743  0.38361171    -0.03200
C1158       C  0.61647464  0.02908950  0.38453521    -0.18300
H1159       H  0.64746451  0.84873071  0.40305440     0.10800
H1160       H  0.64638378  0.91144665  0.40392579     0.10900
H1161       H  0.60738858  0.91061970  0.36411668     0.10500
H1162       H  0.60867658  0.84926830  0.36296717     0.11600
H1163       H  0.62979328  0.96649678  0.39621702     0.11700
H1164       H  0.62167514  0.95972293  0.35818484     0.13600
H1165       H  0.62888964  0.01341488  0.34366529     0.10100
H1166       H  0.62677689  0.07541746  0.34216507     0.12200
H1167       H  0.61112559  0.07856534  0.39489572     0.08900
H1168       H  0.61332041  0.01650217  0.39637269     0.11600
C1169       C  0.61948391  0.58086343  0.37637351    -0.03000
C1170       C  0.60972740  0.56138196  0.38798895    -0.05600
C1171       C  0.61177358  0.52591489  0.38866288    -0.20700
C1172       C  0.62353409  0.50920500  0.37772671     0.25000
C1173       C  0.63310715  0.52871939  0.36596781    -0.18200
C1174       C  0.63100784  0.56399684  0.36523699    -0.08200
C1175       C  0.62604112  0.47173425  0.37933307    -0.18500
C1176       C  0.63223884  0.45220431  0.36659846    -0.23300
C1177       C  0.63389396  0.41467475  0.36778850     0.27100
C1178       C  0.63107179  0.39533779  0.35306485    -0.20100
C1179       C  0.63135729  0.35987113  0.35373444    -0.09700
C1180       C  0.63496321  0.34298033  0.36905439    -0.10300
C1181       C  0.63887939  0.36218076  0.38363309    -0.03200
C1182       C  0.63820017  0.39789201  0.38305176    -0.18300
H1183       H  0.60079493  0.57358027  0.39679003     0.10800
H1184       H  0.60427291  0.51151152  0.39787246     0.10900
H1185       H  0.64270446  0.51716190  0.35765944     0.10500
H1186       H  0.63889633  0.57817219  0.35625149     0.11600
H1187       H  0.62185802  0.45967141  0.39106876     0.11700
H1188       H  0.63474934  0.46349593  0.35426114     0.13600
H1189       H  0.62797437  0.40769882  0.34112768     0.10100
H1190       H  0.62838392  0.34552600  0.34231101     0.12200
H1191       H  0.64164827  0.34960393  0.39558296     0.08900
H1192       H  0.64091754  0.41226865  0.39450642     0.11600
C1193       C  0.80088108  0.07942429  0.37566355    -0.03000
C1194       C  0.79469306  0.09813460  0.38968599    -0.05600
C1195       C  0.77782986  0.11192959  0.38966901    -0.20700
C1196       C  0.76681773  0.10793407  0.37553851     0.25000
C1197       C  0.77265268  0.08786988  0.36177758    -0.18200
C1198       C  0.78953691  0.07365418  0.36188053    -0.08200
C1199       C  0.74945877  0.12521264  0.37578576    -0.18500
C1200       C  0.74070305  0.13461598  0.36167658    -0.23300
C1201       C  0.72349228  0.15241274  0.36217572     0.27100
C1202       C  0.71177562  0.14760118  0.34865405    -0.20100
C1203       C  0.69508691  0.16226246  0.34903446    -0.09700
C1204       C  0.68978929  0.18256795  0.36286959    -0.10300
C1205       C  0.70186876  0.18894281  0.37599947    -0.03200
C1206       C  0.71855827  0.17400763  0.37567306    -0.18300
H1207       H  0.80307645  0.10284845  0.40056147     0.10800
H1208       H  0.77359193  0.12680400  0.40052689     0.10900
H1209       H  0.76430536  0.08321805  0.35089878     0.10500
H1210       H  0.79395110  0.05934446  0.35091128     0.11600
H1211       H  0.74403905  0.13144330  0.38815822     0.11700
H1212       H  0.74597682  0.12830825  0.34926173     0.13600
H1213       H  0.71534304  0.13153791  0.33799322     0.10100
H1214       H  0.68617729  0.15699762  0.33862918     0.12200
H1215       H  0.69825749  0.20464635  0.38676892     0.08900
H1216       H  0.72750995  0.17938502  0.38601047     0.11600
C1217       C  0.80659910  0.94174210  0.12125364    -0.03000
C1218       C  0.80026326  0.92444246  0.10682819    -0.05600
C1219       C  0.78397143  0.90821263  0.10708467    -0.20700
C1220       C  0.77368968  0.90827924  0.12183515     0.25000
C1221       C  0.77957784  0.92691678  0.13607538    -0.18200
C1222       C  0.79587304  0.94361192  0.13575057    -0.08200
C1223       C  0.75693837  0.88876283  0.12167669    -0.18500
C1224       C  0.74974255  0.87471502  0.13565275    -0.23300
C1225       C  0.73294804  0.85524014  0.13542511     0.27100
C1226       C  0.72291467  0.85413049  0.15033435    -0.20100
C1227       C  0.70640095  0.83870116  0.15040053    -0.09700
C1228       C  0.69960776  0.82340227  0.13561191    -0.10300
C1229       C  0.71013173  0.82232062  0.12097797    -0.03200
C1230       C  0.72663999  0.83817163  0.12085397    -0.18300
H1231       H  0.80816167  0.92256868  0.09542757     0.10800
H1232       H  0.77966170  0.89448985  0.09587784     0.10900
H1233       H  0.77171535  0.92848412  0.14749072     0.10500
H1234       H  0.80039987  0.95666300  0.14706789     0.11600
H1235       H  0.75070414  0.88498421  0.10942144     0.11700
H1236       H  0.75601031  0.87855565  0.14789736     0.13600
H1237       H  0.72755717  0.86646658  0.16181392     0.10100
H1238       H  0.69868525  0.83967512  0.16194572     0.12200
H1239       H  0.70527838  0.81064226  0.10941718     0.08900
H1240       H  0.73428717  0.83727273  0.10929238     0.11600
C1241       C  0.62961350  0.78605748  0.19826537    -0.03000
C1242       C  0.64369667  0.79625318  0.20860763    -0.05600
C1243       C  0.64414791  0.78711415  0.22577444    -0.20700
C1244       C  0.63041683  0.76818350  0.23295607     0.25000
C1245       C  0.61618783  0.75849321  0.22264590    -0.18200
C1246       C  0.61580112  0.76737768  0.20550372    -0.08200
C1247       C  0.63160878  0.75774930  0.25101319    -0.18500
C1248       C  0.61735807  0.75177361  0.26060364    -0.23300
C1249       C  0.61842511  0.74243892  0.27877011     0.27100
C1250       C  0.60497001  0.75310509  0.28963690    -0.20100
C1251       C  0.60569935  0.74575840  0.30694352    -0.09700
C1252       C  0.61974791  0.72692720  0.31368985    -0.10300
C1253       C  0.63290947  0.71503102  0.30270858    -0.03200
C1254       C  0.63230839  0.72286583  0.28537215    -0.18300
H1255       H  0.65462691  0.81029682  0.20331501     0.10800
H1256       H  0.65530227  0.79464772  0.23344605     0.10900
H1257       H  0.60560060  0.74307348  0.22758736     0.10500
H1258       H  0.60482672  0.75896215  0.19781841     0.11600
H1259       H  0.64454682  0.75666756  0.25677746     0.11700
H1260       H  0.60438533  0.75633318  0.25538398     0.13600
H1261       H  0.59405189  0.76785383  0.28478026     0.10100
H1262       H  0.59527501  0.75500257  0.31507592     0.12200
H1263       H  0.64384463  0.70036976  0.30757428     0.08900
H1264       H  0.64262114  0.71345250  0.27717246     0.11600
C1265       C  0.63835645  0.66715704  0.13432840    -0.03000
C1266       C  0.63196812  0.65113402  0.14905417    -0.05600
C1267       C  0.63040569  0.61574819  0.14982777    -0.20700
C1268       C  0.63477709  0.59557257  0.13577020     0.25000
C1269       C  0.64180661  0.61139143  0.12120191    -0.18200
C1270       C  0.64368362  0.64694622  0.12053963    -0.08200
C1271       C  0.63184389  0.55820857  0.13682759    -0.18500
C1272       C  0.62715397  0.53931671  0.12327923    -0.23300
C1273       C  0.62422803  0.50181834  0.12379762     0.27100
C1274       C  0.62541738  0.48370505  0.10848455    -0.20100
C1275       C  0.62392741  0.44829442  0.10824833    -0.09700
C1276       C  0.62093306  0.43000576  0.12331714    -0.10300
C1277       C  0.61872601  0.44811894  0.13857681    -0.03200
C1278       C  0.62040392  0.48375542  0.13884771    -0.18300
H1279       H  0.62788026  0.66610210  0.15993287     0.10800
H1280       H  0.62519552  0.60417158  0.16125247     0.10900
H1281       H  0.64581488  0.59639583  0.11032486     0.10500
H1282       H  0.64863450  0.65867942  0.10905431     0.11600
H1283       H  0.63295522  0.54649256  0.14925646     0.11700
H1284       H  0.62587946  0.55170141  0.11100217     0.13600
H1285       H  0.62808592  0.49691464  0.09668280     0.10100
H1286       H  0.62554297  0.43509503  0.09624982     0.12200
H1287       H  0.61640143  0.43467550  0.15037371     0.08900
H1288       H  0.61879106  0.49685014  0.15084199     0.11600
C1289       C  0.63776372  0.16817156  0.11713189    -0.03000
C1290       C  0.62890166  0.14989066  0.10436234    -0.05600
C1291       C  0.62799372  0.11436591  0.10490369    -0.20700
C1292       C  0.63564664  0.09624587  0.11834380     0.25000
C1293       C  0.64513381  0.11436014  0.13080036    -0.18200
C1294       C  0.64620534  0.14999444  0.13016117    -0.08200
C1295       C  0.63349640  0.05859011  0.11874645    -0.18500
C1296       C  0.63398573  0.04003232  0.13313556    -0.23300
C1297       C  0.63164905  0.00239299  0.13347947     0.27100
C1298       C  0.63900474  0.98397003  0.14697791    -0.20100
C1299       C  0.63774741  0.94845762  0.14750160    -0.09700
C1300       C  0.62890379  0.93049467  0.13459584    -0.10300
C1301       C  0.62088818  0.94902797  0.12143383    -0.03200
C1302       C  0.62220467  0.98459821  0.12088390    -0.18300
H1303       H  0.62234152  0.16310722  0.09408915     0.10800
H1304       H  0.62082680  0.10103752  0.09502582     0.10900
H1305       H  0.65173693  0.10121137  0.14104152     0.10500
H1306       H  0.65314593  0.16335938  0.14016787     0.11600
H1307       H  0.63090725  0.04602893  0.10670932     0.11700
H1308       H  0.63659630  0.05258850  0.14517310     0.13600
H1309       H  0.64613272  0.99704978  0.15696320     0.10100
H1310       H  0.64399907  0.93504965  0.15788918     0.12200
H1311       H  0.61383336  0.93602316  0.11138538     0.08900
H1312       H  0.61574317  0.99793966  0.11062312     0.11600
C1313       C  0.69517092  0.33289795  0.12330453    -0.03000
C1314       C  0.70860153  0.31220101  0.12983503    -0.05600
C1315       C  0.72585303  0.32446389  0.13089483    -0.20700
C1316       C  0.72997821  0.35788481  0.12583821     0.25000
C1317       C  0.71650826  0.37861691  0.11936790    -0.18200
C1318       C  0.69935652  0.36623043  0.11808081    -0.08200
C1319       C  0.74855601  0.36965070  0.12654574    -0.18500
C1320       C  0.75330021  0.40271904  0.12797402    -0.23300
C1321       C  0.77191580  0.41436807  0.12786718     0.27100
C1322       C  0.77649227  0.44503260  0.13602365    -0.20100
C1323       C  0.79387297  0.45685266  0.13588434    -0.09700
C1324       C  0.80699632  0.43851391  0.12729448    -0.10300
C1325       C  0.80228230  0.40817382  0.11885074    -0.03200
C1326       C  0.78501158  0.39625365  0.11913285    -0.18300
H1327       H  0.70582350  0.28640593  0.13390386     0.10800
H1328       H  0.73601660  0.30781645  0.13574330     0.10900
H1329       H  0.71921466  0.40413974  0.11489167     0.10500
H1330       H  0.68932005  0.38291244  0.11301871     0.11600
H1331       H  0.75864550  0.35013664  0.12639008     0.11700
H1332       H  0.74326658  0.42197867  0.12984697     0.13600
H1333       H  0.76661239  0.45971253  0.14267335     0.10100
H1334       H  0.79702324  0.48030470  0.14248537     0.12200
H1335       H  0.81199466  0.39335954  0.11204948     0.08900
H1336       H  0.78193405  0.37314788  0.11222379     0.11600
C1337       C  0.61663473  0.22826118  0.30323019    -0.03000
C1338       C  0.60615607  0.25532163  0.29734131    -0.05600
C1339       C  0.60518252  0.26289037  0.28001835    -0.20700
C1340       C  0.61479095  0.24394261  0.26812069     0.25000
C1341       C  0.62489791  0.21618989  0.27389489    -0.18200
C1342       C  0.62582182  0.20849078  0.29127355    -0.08200
C1343       C  0.61380371  0.25390613  0.24987718    -0.18500
C1344       C  0.62689501  0.24814600  0.23872797    -0.23300
C1345       C  0.62682118  0.25912760  0.22055725     0.27100
C1346       C  0.64004046  0.24643403  0.20988772    -0.20100
C1347       C  0.64091073  0.25599514  0.19281809    -0.09700
C1348       C  0.62858559  0.27872491  0.18588055    -0.10300
C1349       C  0.61537875  0.29174850  0.19653055    -0.03200
C1350       C  0.61450507  0.28216202  0.21368486    -0.18300
H1351       H  0.59884516  0.27107032  0.30615161     0.10800
H1352       H  0.59717379  0.28416695  0.27593099     0.10900
H1353       H  0.63201706  0.20022051  0.26506234     0.10500
H1354       H  0.63389214  0.18731672  0.29535366     0.11600
H1355       H  0.60221508  0.26773651  0.24590814     0.11700
H1356       H  0.63854877  0.23494917  0.24312592     0.13600
H1357       H  0.64975173  0.22881359  0.21476147     0.10100
H1358       H  0.65123195  0.24528682  0.18502047     0.12200
H1359       H  0.60566076  0.30927193  0.19160074     0.08900
H1360       H  0.60427271  0.29323211  0.22139677     0.11600
C1361       C  0.18642688  0.92285920  0.36837432    -0.03000
C1362       C  0.18991158  0.89257225  0.37735127    -0.05600
C1363       C  0.20605326  0.87613255  0.37586444    -0.20700
C1364       C  0.21933456  0.88973210  0.36564730     0.25000
C1365       C  0.21607629  0.92027260  0.35677105    -0.18200
C1366       C  0.19972610  0.93660484  0.35807062    -0.08200
C1367       C  0.23627270  0.87102995  0.36460351    -0.18500
C1368       C  0.25180682  0.88678360  0.36277243    -0.23300
C1369       C  0.26882394  0.86880179  0.36494266     0.27100
C1370       C  0.28263757  0.88646233  0.37268084    -0.20100
C1371       C  0.29866582  0.87043845  0.37567230    -0.09700
C1372       C  0.30150090  0.83642701  0.37064970    -0.10300
C1373       C  0.28783322  0.81886774  0.36241216    -0.03200
C1374       C  0.27155229  0.83482603  0.35971492    -0.18300
H1375       H  0.17999859  0.88098421  0.38532162     0.10800
H1376       H  0.20820632  0.85270125  0.38282837     0.10900
H1377       H  0.22596004  0.93111663  0.34852699     0.10500
H1378       H  0.19741650  0.95962963  0.35084066     0.11600
H1379       H  0.23609797  0.84390544  0.36734827     0.11700
H1380       H  0.25212870  0.91437870  0.36177143     0.13600
H1381       H  0.28091455  0.91264401  0.37674134     0.10100
H1382       H  0.30896194  0.88498918  0.38180155     0.12200
H1383       H  0.28967559  0.79282452  0.35821334     0.08900
H1384       H  0.26121391  0.82075760  0.35339269     0.11600
C1385       C  0.43255932  0.77166882  0.38422247    -0.03000
C1386       C  0.43818148  0.74551911  0.39518572    -0.05600
C1387       C  0.45598743  0.73766625  0.39682097    -0.20700
C1388       C  0.46866027  0.75553512  0.38749624     0.25000
C1389       C  0.46309432  0.78229573  0.37681032    -0.18200
C1390       C  0.44524584  0.79010748  0.37513657    -0.08200
C1391       C  0.48747513  0.74587358  0.38953618    -0.18500
C1392       C  0.49980409  0.75287555  0.37779966    -0.23300
C1393       C  0.51874375  0.74413030  0.37941134     0.27100
C1394       C  0.53056097  0.76165259  0.36897817    -0.20100
C1395       C  0.54842919  0.75438392  0.36946885    -0.09700
C1396       C  0.55509432  0.72905773  0.38034402    -0.10300
C1397       C  0.54331368  0.71117861  0.39079758    -0.03200
C1398       C  0.52527822  0.71863753  0.39035794    -0.18300
H1399       H  0.42879762  0.73083704  0.40245774     0.10800
H1400       H  0.45985865  0.71722116  0.40526850     0.10900
H1401       H  0.47241132  0.79768547  0.36988111     0.10500
H1402       H  0.44139643  0.81068227  0.36676928     0.11600
H1403       H  0.49107900  0.73204858  0.40094239     0.11700
H1404       H  0.49601509  0.76625443  0.36632196     0.13600
H1405       H  0.52595231  0.78127521  0.36038928     0.10100
H1406       H  0.55703635  0.76873963  0.36120072     0.12200
H1407       H  0.54801851  0.69149350  0.39928497     0.08900
H1408       H  0.51656943  0.70398128  0.39834831     0.11600
C1409       C  0.37247046  0.42911278  0.36572549    -0.03000
C1410       C  0.36559239  0.44621269  0.35149052    -0.05600
C1411       C  0.36302592  0.48147288  0.35181089    -0.20700
C1412       C  0.36705969  0.50048437  0.36639829     0.25000
C1413       C  0.37469657  0.48368475  0.38038780    -0.18200
C1414       C  0.37734275  0.44836852  0.38004671    -0.08200
C1415       C  0.36333274  0.53771629  0.36640575    -0.18500
C1416       C  0.36048199  0.55583712  0.38069220    -0.23300
C1417       C  0.35762235  0.59329639  0.38083759     0.27100
C1418       C  0.36291976  0.61169655  0.39522730    -0.20100
C1419       C  0.36175707  0.64717446  0.39554178    -0.09700
C1420       C  0.35494880  0.66512523  0.38156343    -0.10300
C1421       C  0.34860485  0.64664982  0.36753324    -0.03200
C1422       C  0.34998926  0.61100711  0.36712802    -0.18300
H1423       H  0.36175885  0.43224283  0.34020406     0.10800
H1424       H  0.35739532  0.49381576  0.34077040     0.10900
H1425       H  0.37866246  0.49761226  0.39161983     0.10500
H1426       H  0.38277120  0.43605061  0.39117982     0.11600
H1427       H  0.36269028  0.55036579  0.35415967     0.11700
H1428       H  0.36108279  0.54320876  0.39293808     0.13600
H1429       H  0.36861234  0.59865977  0.40603739     0.10100
H1430       H  0.36664728  0.66065839  0.40659485     0.12200
H1431       H  0.34327910  0.65980247  0.35659248     0.08900
H1432       H  0.34521446  0.59751081  0.35605352     0.11600
C1433       C  0.36215733  0.16554477  0.37138695    -0.03000
C1434       C  0.35244985  0.14900520  0.38408560    -0.05600
C1435       C  0.35298111  0.11344144  0.38556760    -0.20700
C1436       C  0.36318443  0.09365320  0.37440651     0.25000
C1437       C  0.37240137  0.11022471  0.36132193    -0.18200
C1438       C  0.37196851  0.14571187  0.35992390    -0.08200
C1439       C  0.36356053  0.05595444  0.37669905    -0.18500
C1440       C  0.37602966  0.03527852  0.37015363    -0.23300
C1441       C  0.37620087  0.99764037  0.37261764     0.27100
C1442       C  0.38510489  0.97701437  0.36081793    -0.20100
C1443       C  0.38505259  0.94143580  0.36241875    -0.09700
C1444       C  0.37618195  0.92576762  0.37596613    -0.10300
C1445       C  0.36789150  0.94653866  0.38813943    -0.03200
C1446       C  0.36795034  0.98197517  0.38654271    -0.18300
H1447       H  0.34481960  0.16358209  0.39313944     0.10800
H1448       H  0.34561212  0.10136941  0.39566905     0.10900
H1449       H  0.37987904  0.09610209  0.35202219     0.10500
H1450       H  0.37940144  0.15767718  0.34983715     0.11600
H1451       H  0.35311591  0.04505787  0.38429701     0.11700
H1452       H  0.38643315  0.04588314  0.36241813     0.13600
H1453       H  0.39178682  0.98843391  0.35009850     0.10100
H1454       H  0.39159076  0.92621648  0.35284049     0.12200
H1455       H  0.36111012  0.93539710  0.39886797     0.08900
H1456       H  0.36158749  0.99685599  0.39632890     0.11600
C1457       C  0.30279361  0.32991452  0.36781553    -0.03000
C1458       C  0.28889587  0.30938458  0.37344317    -0.05600
C1459       C  0.27182348  0.32251682  0.37427390    -0.20700
C1460       C  0.26840313  0.35665464  0.37000359     0.25000
C1461       C  0.28234950  0.37728208  0.36451717    -0.18200
C1462       C  0.29931889  0.36397533  0.36333488    -0.08200
C1463       C  0.25003662  0.36933766  0.37033657    -0.18500
C1464       C  0.24566939  0.40214779  0.37329573    -0.23300
C1465       C  0.22718364  0.41421078  0.37279077     0.27100
C1466       C  0.22166422  0.44062430  0.38362178    -0.20100
C1467       C  0.20415846  0.45173257  0.38348916    -0.09700
C1468       C  0.19193463  0.43700514  0.37227085    -0.10300
C1469       C  0.19772577  0.41144784  0.36101466    -0.03200
C1470       C  0.21508451  0.40018713  0.36128115    -0.18300
H1471       H  0.29118768  0.28308559  0.37696515     0.10800
H1472       H  0.26125279  0.30601741  0.37835969     0.10900
H1473       H  0.28012520  0.40344216  0.36073475     0.10500
H1474       H  0.30979619  0.38051943  0.35906755     0.11600
H1475       H  0.23968963  0.35062794  0.36857525     0.11700
H1476       H  0.25576678  0.42036052  0.37681804     0.13600
H1477       H  0.23082331  0.45214689  0.39245277     0.10100
H1478       H  0.20016297  0.47150847  0.39228270     0.12200
H1479       H  0.18877017  0.39969271  0.35206926     0.08900
H1480       H  0.21904017  0.38063237  0.35235214     0.11600
C1481       C  0.55687234  0.23155571  0.37550051    -0.03000
C1482       C  0.54600268  0.20719126  0.38323825    -0.05600
C1483       C  0.52785160  0.21225772  0.38406519    -0.20700
C1484       C  0.52019083  0.24195185  0.37742298     0.25000
C1485       C  0.53109220  0.26651748  0.36983834    -0.18200
C1486       C  0.54920311  0.26135960  0.36890706    -0.08200
C1487       C  0.50076405  0.24537663  0.37762119    -0.18500
C1488       C  0.49230804  0.27550630  0.37670138    -0.23300
C1489       C  0.47287586  0.27839598  0.37591172     0.27100
C1490       C  0.46475688  0.30841216  0.38164376    -0.20100
C1491       C  0.44652186  0.31226978  0.38063921    -0.09700
C1492       C  0.43606520  0.28639144  0.37354952    -0.10300
C1493       C  0.44423616  0.25652144  0.36762672    -0.03200
C1494       C  0.46240425  0.25253145  0.36879703    -0.18300
H1495       H  0.55147484  0.18392817  0.38839358     0.10800
H1496       H  0.51973894  0.19279580  0.38983867     0.10900
H1497       H  0.52568666  0.28927694  0.36413391     0.10500
H1498       H  0.55718447  0.28064152  0.36282868     0.11600
H1499       H  0.49319705  0.22210053  0.37898120     0.11700
H1500       H  0.49977158  0.29905323  0.37704771     0.13600
H1501       H  0.47254943  0.32888616  0.38698728     0.10100
H1502       H  0.44063939  0.33565078  0.38522657     0.12200
H1503       H  0.43657371  0.23610066  0.36206695     0.08900
H1504       H  0.46820186  0.22948945  0.36374522     0.11600
C1505       C  0.31234630  0.66565193  0.12783813    -0.03000
C1506       C  0.30858844  0.63354576  0.13491439    -0.05600
C1507       C  0.29217800  0.61841679  0.13273340    -0.20700
C1508       C  0.27888047  0.63509989  0.12370459     0.25000
C1509       C  0.28247848  0.66735919  0.11661888    -0.18200
C1510       C  0.29911007  0.68239022  0.11858773    -0.08200
C1511       C  0.26163249  0.61756487  0.12192024    -0.18500
C1512       C  0.24628091  0.63419573  0.12043172    -0.23300
C1513       C  0.22896421  0.61670712  0.12136055     0.27100
C1514       C  0.21482713  0.63449607  0.12845574    -0.20100
C1515       C  0.19844411  0.61902111  0.13014554    -0.09700
C1516       C  0.19559634  0.58547411  0.12442713    -0.10300
C1517       C  0.20961365  0.56777144  0.11688390    -0.03200
C1518       C  0.22620670  0.58314934  0.11547585    -0.18300
H1519       H  0.31848618  0.61961883  0.14192849     0.10800
H1520       H  0.28982604  0.59355658  0.13825671     0.10900
H1521       H  0.27263851  0.68068260  0.10926987     0.10500
H1522       H  0.30162756  0.70695941  0.11283548     0.11600
H1523       H  0.26145698  0.59010058  0.12361256     0.11700
H1524       H  0.24627310  0.66186691  0.12038432     0.13600
H1525       H  0.21653220  0.66037897  0.13297772     0.10100
H1526       H  0.18788630  0.63364587  0.13576994     0.12200
H1527       H  0.20778152  0.54205450  0.11219707     0.08900
H1528       H  0.23674703  0.56895422  0.10958304     0.11600
C1529       C  0.44522604  0.72195288  0.12917490    -0.03000
C1530       C  0.45652743  0.69933261  0.12069432    -0.05600
C1531       C  0.47453768  0.70596924  0.11982299    -0.20700
C1532       C  0.48163267  0.73559818  0.12712892     0.25000
C1533       C  0.47035090  0.75826584  0.13562917    -0.18200
C1534       C  0.45236625  0.75146355  0.13665732    -0.08200
C1535       C  0.50093062  0.74091593  0.12651669    -0.18500
C1536       C  0.50868951  0.77175529  0.12752943    -0.23300
C1537       C  0.52807417  0.77609023  0.12767269     0.27100
C1538       C  0.53555194  0.80629288  0.12139308    -0.20100
C1539       C  0.55378059  0.81111598  0.12168989    -0.09700
C1540       C  0.56483608  0.78605535  0.12861838    -0.10300
C1541       C  0.55727662  0.75606599  0.13510163    -0.03200
C1542       C  0.53915750  0.75112248  0.13463608    -0.18300
H1543       H  0.45148184  0.67634008  0.11483736     0.10800
H1544       H  0.48297047  0.68790818  0.11336255     0.10900
H1545       H  0.47539221  0.78085276  0.14184077     0.10500
H1546       H  0.44404017  0.76941496  0.14330935     0.11600
H1547       H  0.50901608  0.71845311  0.12461226     0.11700
H1548       H  0.50068247  0.79462889  0.12769707     0.13600
H1549       H  0.52727051  0.82610094  0.11615345     0.10100
H1550       H  0.55918794  0.83459413  0.11672290     0.12200
H1551       H  0.56538423  0.73627716  0.14060360     0.08900
H1552       H  0.53386655  0.72801924  0.14010282     0.11600
C1553       C  0.37046793  0.77860341  0.31353754    -0.03000
C1554       C  0.38200988  0.79792745  0.30351497    -0.05600
C1555       C  0.38341311  0.79182216  0.28603131    -0.20700
C1556       C  0.37355490  0.76594188  0.27818169     0.25000
C1557       C  0.36193711  0.74666831  0.28820612    -0.18200
C1558       C  0.36042957  0.75295688  0.30565719    -0.08200
C1559       C  0.37535915  0.76077559  0.25948855    -0.18500
C1560       C  0.37129200  0.73142508  0.25139283    -0.23300
C1561       C  0.37313655  0.72607820  0.23268774     0.27100
C1562       C  0.36434875  0.69847090  0.22508731    -0.20100
C1563       C  0.36566871  0.69237120  0.20758735    -0.09700
C1564       C  0.37596549  0.71362566  0.19726985    -0.10300
C1565       C  0.38498325  0.74094324  0.20490416    -0.03200
C1566       C  0.38364717  0.74706741  0.22236606    -0.18300
H1567       H  0.38986377  0.81797609  0.30915201     0.10800
H1568       H  0.39233942  0.80727921  0.27861080     0.10900
H1569       H  0.35369757  0.72719135  0.28264914     0.10500
H1570       H  0.35138147  0.73762180  0.31299473     0.11600
H1571       H  0.38047079  0.78212346  0.25231945     0.11700
H1572       H  0.36626592  0.71012374  0.25867694     0.13600
H1573       H  0.35628195  0.68168336  0.23270733     0.10100
H1574       H  0.35856556  0.67109087  0.20214191     0.12200
H1575       H  0.39308685  0.75780016  0.19736417     0.08900
H1576       H  0.39111232  0.76797821  0.22761901     0.11600
C1577       C  0.36818057  0.83224357  0.13274223    -0.03000
C1578       C  0.37327855  0.84908785  0.14773677    -0.05600
C1579       C  0.37379609  0.88460148  0.14847684    -0.20700
C1580       C  0.36965529  0.90411692  0.13413707     0.25000
C1581       C  0.36378989  0.88739380  0.11930413    -0.18200
C1582       C  0.36296700  0.85169055  0.11865898    -0.08200
C1583       C  0.37183381  0.94170014  0.13514756    -0.18500
C1584       C  0.37649982  0.96077645  0.12168637    -0.23300
C1585       C  0.37920749  0.99830285  0.12241914     0.27100
C1586       C  0.37742114  0.01689539  0.10732683    -0.20100
C1587       C  0.37899882  0.05231296  0.10736107    -0.09700
C1588       C  0.38272157  0.07006460  0.12246902    -0.10300
C1589       C  0.38544684  0.05144587  0.13747545    -0.03200
C1590       C  0.38364942  0.01584487  0.13748541    -0.18300
H1591       H  0.37721200  0.83470031  0.15884718     0.10800
H1592       H  0.37809660  0.89684471  0.16010810     0.10900
H1593       H  0.35994021  0.90176873  0.10818403     0.10500
H1594       H  0.35896453  0.83931092  0.10697102     0.11600
H1595       H  0.37034921  0.95351720  0.14753712     0.11700
H1596       H  0.37808145  0.94856989  0.10938882     0.13600
H1597       H  0.37426539  0.00404754  0.09551490     0.10100
H1598       H  0.37692489  0.06593678  0.09556468     0.12200
H1599       H  0.38829398  0.06447935  0.14930348     0.08900
H1600       H  0.38572350  0.00230973  0.14927874     0.11600
C1601       C  0.36653266  0.33276597  0.12368046    -0.03000
C1602       C  0.35677534  0.34877379  0.13656878    -0.05600
C1603       C  0.35786126  0.38409461  0.13897775    -0.20700
C1604       C  0.36877596  0.40414226  0.12865227     0.25000
C1605       C  0.37787112  0.38829555  0.11523994    -0.18200
C1606       C  0.37681741  0.35305956  0.11285502    -0.08200
C1607       C  0.37008720  0.44142913  0.13204566    -0.18500
C1608       C  0.38377129  0.46077396  0.12701572    -0.23300
C1609       C  0.38474698  0.49828006  0.12963848     0.27100
C1610       C  0.39473924  0.51782456  0.11827648    -0.20100
C1611       C  0.39524804  0.55336162  0.11964528    -0.09700
C1612       C  0.38591174  0.57017286  0.13257109    -0.10300
C1613       C  0.37661557  0.55045026  0.14447654    -0.03200
C1614       C  0.37604203  0.51490531  0.14304848    -0.18300
H1615       H  0.34872835  0.33391179  0.14513497     0.10800
H1616       H  0.35049050  0.39568574  0.14923284     0.10900
H1617       H  0.38580198  0.40286541  0.10648984     0.10500
H1618       H  0.38434057  0.34163282  0.10266342     0.11600
H1619       H  0.35939093  0.45310785  0.13902953     0.11700
H1620       H  0.39450267  0.44915335  0.12007647     0.13600
H1621       H  0.40175652  0.50561629  0.10796436     0.10100
H1622       H  0.40258530  0.56769414  0.11029376     0.12200
H1623       H  0.36942268  0.56251810  0.15470668     0.08900
H1624       H  0.36875873  0.50064782  0.15244538     0.11600
C1625       C  0.30789307  0.17119044  0.12165618    -0.03000
C1626       C  0.29469730  0.19193811  0.12861347    -0.05600
C1627       C  0.27720165  0.18091230  0.12877284    -0.20700
C1628       C  0.27261392  0.14866639  0.12235743     0.25000
C1629       C  0.28581167  0.12799523  0.11535185    -0.18200
C1630       C  0.30320444  0.13917011  0.11496558    -0.08200
C1631       C  0.25389679  0.13795715  0.12224379    -0.18500
C1632       C  0.24880025  0.10504848  0.12303590    -0.23300
C1633       C  0.23015344  0.09412330  0.12183434     0.27100
C1634       C  0.22482282  0.06365045  0.12965034    -0.20100
C1635       C  0.20741187  0.05238484  0.12838118    -0.09700
C1636       C  0.19504989  0.07108082  0.11896385    -0.10300
C1637       C  0.20053813  0.10123083  0.11086123    -0.03200
C1638       C  0.21783716  0.11263866  0.11229387    -0.18300
H1639       H  0.29786751  0.21677395  0.13379333     0.10800
H1640       H  0.26723243  0.19749962  0.13404016     0.10900
H1641       H  0.28270224  0.10345774  0.10981841     0.10500
H1642       H  0.31302668  0.12252765  0.10949029     0.11600
H1643       H  0.24404129  0.15792076  0.12195361     0.11700
H1644       H  0.25856751  0.08534332  0.12509560     0.13600
H1645       H  0.23412187  0.04871391  0.13691418     0.10100
H1646       H  0.20363153  0.02912281  0.13479796     0.12200
H1647       H  0.19140225  0.11633139  0.10349437     0.08900
H1648       H  0.22158203  0.13565031  0.10565415     0.11600
C1649       C  0.44092350  0.22852847  0.12583170    -0.03000
C1650       C  0.44578691  0.26155533  0.12071255    -0.05600
C1651       C  0.46316588  0.27243863  0.12192217    -0.20700
C1652       C  0.47621514  0.25037145  0.12787135     0.25000
C1653       C  0.47144883  0.21731883  0.13311609    -0.18200
C1654       C  0.45390162  0.20659885  0.13224344    -0.08200
C1655       C  0.49458572  0.26287467  0.12854082    -0.18500
C1656       C  0.50838460  0.24268347  0.12514252    -0.23300
C1657       C  0.52667858  0.25553972  0.12402648     0.27100
C1658       C  0.53834493  0.23894689  0.11305079    -0.20100
C1659       C  0.55580445  0.24934799  0.11193133    -0.09700
C1660       C  0.56216961  0.27632888  0.12201017    -0.10300
C1661       C  0.55045639  0.29321241  0.13295557    -0.03200
C1662       C  0.53284977  0.28298448  0.13392796    -0.18300
H1663       H  0.43607478  0.27927348  0.11593625     0.10800
H1664       H  0.46648140  0.29805558  0.11792756     0.10900
H1665       H  0.48120545  0.19996333  0.13810784     0.10500
H1666       H  0.45051940  0.18113898  0.13640146     0.11600
H1667       H  0.49664129  0.29005407  0.13025862     0.11700
H1668       H  0.50606255  0.21624235  0.12168857     0.13600
H1669       H  0.53392944  0.21776717  0.10530075     0.10100
H1670       H  0.56441414  0.23565091  0.10337610     0.12200
H1671       H  0.55495298  0.31390765  0.14096725     0.08900
H1672       H  0.52425652  0.29591980  0.14277247     0.11600
C1673       C  0.37212577  0.20862418  0.18801720    -0.03000
C1674       C  0.38383692  0.19078405  0.19855620    -0.05600
C1675       C  0.38390122  0.19638922  0.21613866    -0.20700
C1676       C  0.37247330  0.22025931  0.22351855     0.25000
C1677       C  0.36037063  0.23727013  0.21303818    -0.18200
C1678       C  0.36023037  0.23154168  0.19551618    -0.08200
C1679       C  0.37338696  0.22645225  0.24215533    -0.18500
C1680       C  0.36859871  0.25621240  0.24943343    -0.23300
C1681       C  0.36958167  0.26335540  0.26801263     0.27100
C1682       C  0.36007202  0.29109924  0.27455439    -0.20100
C1683       C  0.36048764  0.29881670  0.29192030    -0.09700
C1684       C  0.37056375  0.27906439  0.30315744    -0.10300
C1685       C  0.38038316  0.25172789  0.29656767    -0.03200
C1686       C  0.37994891  0.24398529  0.27922323    -0.18300
H1687       H  0.39307731  0.17277457  0.19321091     0.10800
H1688       H  0.39317923  0.18257771  0.22396326     0.10900
H1689       H  0.35087761  0.25483943  0.21828389     0.10500
H1690       H  0.35091242  0.24550763  0.18781159     0.11600
H1691       H  0.37860740  0.20599785  0.24988503     0.11700
H1692       H  0.36361847  0.27658610  0.24147216     0.13600
H1693       H  0.35211787  0.30668884  0.26621076     0.10100
H1694       H  0.35281679  0.32011427  0.29654693     0.12200
H1695       H  0.38838737  0.23609688  0.30483916     0.08900
H1696       H  0.38794855  0.22309986  0.27475716     0.11600
C1697       C  0.11540161  0.96042960  0.43337881    -0.03000
C1698       C  0.10393073  0.98326537  0.44152260    -0.05600
C1699       C  0.10311459  0.98476008  0.45926750    -0.20700
C1700       C  0.11359250  0.96329989  0.46928557     0.25000
C1701       C  0.12510672  0.94047974  0.46114349    -0.18200
C1702       C  0.12593558  0.93900016  0.44340711    -0.08200
C1703       C  0.11281912  0.96668258  0.48810684    -0.18500
C1704       C  0.11728687  0.94132587  0.49882389    -0.23300
C1705       C  0.11761558  0.94434232  0.51771250     0.27100
C1706       C  0.12561734  0.91808620  0.52702838    -0.20100
C1707       C  0.12685211  0.91987337  0.54471977    -0.09700
C1708       C  0.11996789  0.94791985  0.55359376    -0.10300
C1709       C  0.11158170  0.97389071  0.54437382    -0.03200
C1710       C  0.11040982  0.97219285  0.52663877    -0.18300
H1711       H  0.09567580  0.00023549  0.43419369     0.10800
H1712       H  0.09426084  0.00278752  0.46520096     0.10900
H1713       H  0.13386985  0.92435566  0.46835285     0.10500
H1714       H  0.13504612  0.92137177  0.43755655     0.11600
H1715       H  0.10833907  0.99093501  0.49304282     0.11700
H1716       H  0.12123938  0.91694511  0.49355319     0.13600
H1717       H  0.13116527  0.89620234  0.52056837     0.10100
H1718       H  0.13325502  0.89926153  0.55144039     0.12200
H1719       H  0.10606222  0.99576686  0.55085231     0.08900
H1720       H  0.10377954  0.99273203  0.52016572     0.11600
C1721       C  0.12403053  0.44872925  0.56094763    -0.03000
C1722       C  0.11192709  0.42746150  0.55260185    -0.05600
C1723       C  0.11107171  0.42657941  0.53485186    -0.20700
C1724       C  0.12219305  0.44700147  0.52493544     0.25000
C1725       C  0.13431782  0.46839098  0.53330887    -0.18200
C1726       C  0.13517354  0.46924795  0.55108321    -0.08200
C1727       C  0.12099819  0.44409499  0.50603292    -0.18500
C1728       C  0.12872328  0.46575188  0.49503421    -0.23300
C1729       C  0.12794584  0.46206671  0.47618478     0.27100
C1730       C  0.14068368  0.47882151  0.46641109    -0.20100
C1731       C  0.14037762  0.47700965  0.44867517    -0.09700
C1732       C  0.12721395  0.45851916  0.44019162    -0.10300
C1733       C  0.11443940  0.44162226  0.44993931    -0.03200
C1734       C  0.11474284  0.44345042  0.46773230    -0.18300
H1735       H  0.10314315  0.41127327  0.55977869     0.10800
H1736       H  0.10166231  0.40974348  0.52883423     0.10900
H1737       H  0.14345035  0.48409752  0.52636420     0.10500
H1738       H  0.14467048  0.48588977  0.55709505     0.11600
H1739       H  0.11350969  0.42278203  0.50108774     0.11700
H1740       H  0.13636490  0.48694323  0.49983020     0.13600
H1741       H  0.15096135  0.49343792  0.47253573     0.10100
H1742       H  0.15043121  0.49035698  0.44160853     0.12200
H1743       H  0.10401919  0.42741408  0.44381616     0.08900
H1744       H  0.10437137  0.43092802  0.47469137     0.11600
C1745       C  0.12117486  0.82323677  0.62294204    -0.03000
C1746       C  0.11235175  0.80581949  0.63595249    -0.05600
C1747       C  0.11347117  0.77026310  0.63714060    -0.20700
C1748       C  0.12353423  0.75139377  0.62548014     0.25000
C1749       C  0.13204047  0.76877281  0.61224134    -0.18200
C1750       C  0.13088945  0.80420338  0.61102519    -0.08200
C1751       C  0.12428892  0.71367515  0.62724607    -0.18500
C1752       C  0.13704563  0.69383351  0.62057494    -0.23300
C1753       C  0.13725149  0.65604013  0.62232702     0.27100
C1754       C  0.14626476  0.63617982  0.61026322    -0.20100
C1755       C  0.14577284  0.60046102  0.61102196    -0.09700
C1756       C  0.13625621  0.58402747  0.62390866    -0.10300
C1757       C  0.12802288  0.60396303  0.63643366    -0.03200
C1758       C  0.12861985  0.63944151  0.63574964    -0.18300
H1759       H  0.10478023  0.81965593  0.64533059     0.10800
H1760       H  0.10662351  0.75745883  0.64736233     0.10900
H1761       H  0.13940789  0.75524431  0.60263451     0.10500
H1762       H  0.13776288  0.81670713  0.60073280     0.11600
H1763       H  0.11377485  0.70203181  0.63446470     0.11700
H1764       H  0.14750788  0.70527688  0.61320189     0.13600
H1765       H  0.15328047  0.64832245  0.59994947     0.10100
H1766       H  0.15233062  0.58578049  0.60124820     0.12200
H1767       H  0.12091510  0.59209978  0.64676710     0.08900
H1768       H  0.12227475  0.65360728  0.64580484     0.11600
C1769       C  0.13421599  0.08575835  0.61546527    -0.03000
C1770       C  0.12593565  0.10351400  0.60218974    -0.05600
C1771       C  0.12482113  0.13902229  0.60251026    -0.20700
C1772       C  0.13166719  0.15761708  0.61622389     0.25000
C1773       C  0.14068378  0.14003190  0.62915978    -0.18200
C1774       C  0.14197242  0.10441800  0.62874528    -0.08200
C1775       C  0.12900742  0.19514953  0.61649642    -0.18500
C1776       C  0.12853968  0.21380371  0.63088082    -0.23300
C1777       C  0.12530826  0.25118028  0.63108132     0.27100
C1778       C  0.13199743  0.27051311  0.64461355    -0.20100
C1779       C  0.12986418  0.30588412  0.64498629    -0.09700
C1780       C  0.12077671  0.32275775  0.63189682    -0.10300
C1781       C  0.11336903  0.30321569  0.61872962    -0.03200
C1782       C  0.11557985  0.26780266  0.61832421    -0.18300
H1783       H  0.11993311  0.08988553  0.59171047     0.10800
H1784       H  0.11804478  0.15194334  0.59226739     0.10900
H1785       H  0.14668703  0.15356517  0.63964033     0.10500
H1786       H  0.14846241  0.09143824  0.63913428     0.11600
H1787       H  0.12669198  0.20749557  0.60436685     0.11700
H1788       H  0.13090963  0.20157523  0.64302800     0.13600
H1789       H  0.13932654  0.25830261  0.65471627     0.10100
H1790       H  0.13572427  0.32008364  0.65534649     0.12200
H1791       H  0.10621133  0.31535242  0.60850007     0.08900
H1792       H  0.10962391  0.25363766  0.60802666     0.11600
C1793       C  0.13169616  0.54389741  0.06125967    -0.03000
C1794       C  0.14409722  0.52312766  0.05303805    -0.05600
C1795       C  0.14468978  0.52123864  0.03532636    -0.20700
C1796       C  0.13301268  0.54015982  0.02528693     0.25000
C1797       C  0.12053471  0.56100918  0.03348130    -0.18200
C1798       C  0.11992259  0.56285580  0.05127143    -0.08200
C1799       C  0.13410328  0.53624302  0.00645525    -0.18500
C1800       C  0.12670320  0.55776049  0.99518867    -0.23300
C1801       C  0.12790464  0.55370462  0.97636095     0.27100
C1802       C  0.11627427  0.57241545  0.96616811    -0.20100
C1803       C  0.11705309  0.57034320  0.94845813    -0.09700
C1804       C  0.12957364  0.54954401  0.94041636    -0.10300
C1805       C  0.14123083  0.53069172  0.95055904    -0.03200
C1806       C  0.14047919  0.53282003  0.96832128    -0.18300
H1807       H  0.15335925  0.50809495  0.06029044     0.10800
H1808       H  0.15437614  0.50485639  0.02943163     0.10900
H1809       H  0.11097737  0.57544551  0.02635199     0.10500
H1810       H  0.11016676  0.57901555  0.05719609     0.11600
H1811       H  0.14150138  0.51455960  0.00184496     0.11700
H1812       H  0.11926520  0.57941451  0.99978577     0.13600
H1813       H  0.10651509  0.58881479  0.97193700     0.10100
H1814       H  0.10786455  0.58527402  0.94106674     0.12200
H1815       H  0.15112521  0.51464464  0.94477404     0.08900
H1816       H  0.15005245  0.51861883  0.97553987     0.11600
C1817       C  0.13181939  0.53412965  0.80841375    -0.03000
C1818       C  0.14491942  0.54854466  0.79810263    -0.05600
C1819       C  0.14569288  0.54087578  0.78070317    -0.20700
C1820       C  0.13328289  0.51904501  0.77320693     0.25000
C1821       C  0.12014660  0.50478288  0.78351650    -0.18200
C1822       C  0.11942030  0.51228039  0.80086032    -0.08200
C1823       C  0.13479777  0.51028368  0.75484602    -0.18500
C1824       C  0.12089056  0.50118749  0.74527050    -0.23300
C1825       C  0.12213583  0.49194152  0.72699235     0.27100
C1826       C  0.10758567  0.49779986  0.71648132    -0.20100
C1827       C  0.10813283  0.48935573  0.69923568    -0.09700
C1828       C  0.12311783  0.47404223  0.69217631    -0.10300
C1829       C  0.13752787  0.46718254  0.70277958    -0.03200
C1830       C  0.13710081  0.47625308  0.72001866    -0.18300
H1831       H  0.15476256  0.56523267  0.80352514     0.10800
H1832       H  0.15603946  0.55196581  0.77307584     0.10900
H1833       H  0.11068319  0.48700062  0.77836567     0.10500
H1834       H  0.10925714  0.50040914  0.80841796     0.11600
H1835       H  0.14760705  0.51265378  0.74894234     0.11700
H1836       H  0.10783952  0.50221373  0.75075130     0.13600
H1837       H  0.09582616  0.50943173  0.72158643     0.10100
H1838       H  0.09677633  0.49475180  0.69140940     0.12200
H1839       H  0.14924538  0.45542614  0.69767253     0.08900
H1840       H  0.14836718  0.47052780  0.72788376     0.11600
C1841       C  0.13038237  0.04628407  0.93349081    -0.03000
C1842       C  0.14551818  0.03513357  0.94205408    -0.05600
C1843       C  0.14618892  0.03497246  0.95979766    -0.20700
C1844       C  0.13170326  0.04547836  0.96944832     0.25000
C1845       C  0.11654345  0.05681708  0.96092963    -0.18200
C1846       C  0.11591110  0.05721779  0.94313655    -0.08200
C1847       C  0.13326169  0.04554225  0.98828882    -0.18500
C1848       C  0.11943565  0.04384915  0.99890941    -0.23300
C1849       C  0.12123977  0.04391995  0.01774340     0.27100
C1850       C  0.10785165  0.02952784  0.02764990    -0.20100
C1851       C  0.10894692  0.02967635  0.04540782    -0.09700
C1852       C  0.12336250  0.04474734  0.05365514    -0.10300
C1853       C  0.13669382  0.05941664  0.04374359    -0.03200
C1854       C  0.13565855  0.05905115  0.02600772    -0.18300
H1855       H  0.15696111  0.02680784  0.93504583     0.10800
H1856       H  0.15808673  0.02646696  0.96602192     0.10900
H1857       H  0.10529461  0.06608775  0.96790524     0.10500
H1858       H  0.10410247  0.06620777  0.93693925     0.11600
H1859       H  0.14643591  0.04531424  0.99352264     0.11700
H1860       H  0.10634105  0.04073014  0.99371541     0.13600
H1861       H  0.09652608  0.01800560  0.02162044     0.10100
H1862       H  0.09839899  0.01835470  0.05267529     0.12200
H1863       H  0.14794456  0.07134347  0.04969793     0.08900
H1864       H  0.14599140  0.07135626  0.01888599     0.11600
C1865       C  0.14305436  0.91818277  0.86797955    -0.03000
C1866       C  0.13987505  0.90085137  0.85266376    -0.05600
C1867       C  0.14051121  0.86540519  0.85195559    -0.20700
C1868       C  0.14392661  0.84629826  0.86661347     0.25000
C1869       C  0.14772439  0.86356419  0.88191747    -0.18200
C1870       C  0.14741039  0.89935553  0.88255024    -0.08200
C1871       C  0.14326976  0.80856683  0.86519232    -0.18500
C1872       C  0.13873691  0.78782149  0.87808281    -0.23300
C1873       C  0.13628348  0.75035242  0.87598934     0.27100
C1874       C  0.12601368  0.73273128  0.88789082    -0.20100
C1875       C  0.12346127  0.69752256  0.88647612    -0.09700
C1876       C  0.13124790  0.67902065  0.87315573    -0.10300
C1877       C  0.14150290  0.69664283  0.86120881    -0.03200
C1878       C  0.14406621  0.73181366  0.86263095    -0.18300
H1879       H  0.13658616  0.91481033  0.84122391     0.10800
H1880       H  0.13773899  0.85280856  0.83998607     0.10900
H1881       H  0.15086249  0.84956814  0.89336190     0.10500
H1882       H  0.14986135  0.91220570  0.89451044     0.11600
H1883       H  0.14493366  0.79800825  0.85255227     0.11700
H1884       H  0.13549294  0.79888091  0.89034163     0.13600
H1885       H  0.11995032  0.74626075  0.89835919     0.10100
H1886       H  0.11566296  0.68471463  0.89602690     0.12200
H1887       H  0.14791127  0.68313938  0.85093202     0.08900
H1888       H  0.15252998  0.74402216  0.85346280     0.11600
C1889       C  0.13762215  0.41627044  0.87239049    -0.03000
C1890       C  0.13521137  0.40183075  0.85622692    -0.05600
C1891       C  0.13409849  0.36662755  0.85422552    -0.20700
C1892       C  0.13492071  0.34503942  0.86837040     0.25000
C1893       C  0.13792147  0.35931730  0.88456587    -0.18200
C1894       C  0.13939161  0.39477591  0.88653185    -0.08200
C1895       C  0.13288249  0.30789396  0.86546452    -0.18500
C1896       C  0.12638676  0.28606626  0.87707045    -0.23300
C1897       C  0.12404883  0.24899376  0.87360865     0.27100
C1898       C  0.11242429  0.22991900  0.88367939    -0.20100
C1899       C  0.11066511  0.19465157  0.88129391    -0.09700
C1900       C  0.12051262  0.17778998  0.86874091    -0.10300
C1901       C  0.13182915  0.19706917  0.85844442    -0.03200
C1902       C  0.13371636  0.23205024  0.86093446    -0.18300
H1903       H  0.13390928  0.41792272  0.84511549     0.10800
H1904       H  0.13205910  0.35626958  0.84160293     0.10900
H1905       H  0.13912441  0.34324565  0.89566913     0.10500
H1906       H  0.14120448  0.40543133  0.89911648     0.11600
H1907       H  0.13567756  0.29886311  0.85272109     0.11700
H1908       H  0.12197942  0.29579192  0.88926619     0.13600
H1909       H  0.10487284  0.24226281  0.89358414     0.10100
H1910       H  0.10193931  0.18050475  0.88953210     0.12200
H1911       H  0.13987385  0.18491201  0.84885571     0.08900
H1912       H  0.14329025  0.24526526  0.85326225     0.11600
C1913       C  0.12850301  0.96857296  0.68508695    -0.03000
C1914       C  0.11915346  0.94709180  0.69610336    -0.05600
C1915       C  0.11914557  0.95315599  0.71363942    -0.20700
C1916       C  0.12823249  0.98108188  0.72057186     0.25000
C1917       C  0.13776166  0.00238403  0.70955300    -0.18200
C1918       C  0.13788892  0.99615180  0.69203769    -0.08200
C1919       C  0.12778633  0.98635442  0.73933272    -0.18500
C1920       C  0.13117880  0.01641269  0.74707813    -0.23300
C1921       C  0.13039605  0.02182506  0.76585713     0.27100
C1922       C  0.13809375  0.05130362  0.77281329    -0.20100
C1923       C  0.13761620  0.05753875  0.79035521    -0.09700
C1924       C  0.12931528  0.03444902  0.80135543    -0.10300
C1925       C  0.12139527  0.00522175  0.79437455    -0.03200
C1926       C  0.12185126  0.99902027  0.77689474    -0.18300
H1927       H  0.11186910  0.92553184  0.69118196     0.10800
H1928       H  0.11184034  0.93611132  0.72182426     0.10900
H1929       H  0.14538143  0.02355816  0.71433633     0.10500
H1930       H  0.14525230  0.01318777  0.68390641     0.11600
H1931       H  0.12420027  0.96436785  0.74688112     0.11700
H1932       H  0.13470334  0.03834050  0.73943162     0.13600
H1933       H  0.14462493  0.06951897  0.76464264     0.10100
H1934       H  0.14380513  0.08033517  0.79529326     0.12200
H1935       H  0.11477112  0.98695577  0.80244057     0.08900
H1936       H  0.11521856  0.97656408  0.77222712     0.11600
C1937       C  0.87346372  0.95726227  0.93815598    -0.03000
C1938       C  0.86278227  0.93400723  0.94693008    -0.05600
C1939       C  0.86226119  0.93395176  0.96467350    -0.20700
C1940       C  0.87249623  0.95685862  0.97414704     0.25000
C1941       C  0.88312203  0.98038886  0.96539799    -0.18200
C1942       C  0.88359836  0.98052650  0.94759350    -0.08200
C1943       C  0.87116125  0.95580871  0.99302367    -0.18500
C1944       C  0.88334605  0.96856065  0.00372637    -0.23300
C1945       C  0.88185028  0.96693399  0.02260589     0.27100
C1946       C  0.89172819  0.98978284  0.03248588    -0.20100
C1947       C  0.89063941  0.98937117  0.05024288    -0.09700
C1948       C  0.87972146  0.96583992  0.05857150    -0.10300
C1949       C  0.87012066  0.94245572  0.04870932    -0.03200
C1950       C  0.87120684  0.94287053  0.03096402    -0.18300
H1951       H  0.85475411  0.91580402  0.94009028     0.10800
H1952       H  0.85386509  0.91572606  0.97104354     0.10900
H1953       H  0.89083245  0.99915626  0.97214777     0.10500
H1954       H  0.89187505  0.99893862  0.94122403     0.11600
H1955       H  0.85961776  0.94346442  0.99818210     0.11700
H1956       H  0.89484840  0.98113477  0.99860892     0.13600
H1957       H  0.90018439  0.00832742  0.02642942     0.10100
H1958       H  0.89829018  0.00764196  0.05743528     0.12200
H1959       H  0.86171481  0.92375717  0.05470138     0.08900
H1960       H  0.86386596  0.92391832  0.02396440     0.11600
C1961       C  0.06251114  0.02281742  0.86591199    -0.03000
C1962       C  0.05646583  0.99875051  0.85398734    -0.05600
C1963       C  0.03866193  0.99098078  0.85273226    -0.20700
C1964       C  0.02646919  0.00661071  0.86350916     0.25000
C1965       C  0.03238081  0.03119712  0.87526525    -0.18200
C1966       C  0.05024892  0.03922433  0.87643906    -0.08200
C1967       C  0.00772257  0.99692462  0.86187984    -0.18500
C1968       C  0.99652703  0.99743422  0.87508095    -0.23300
C1969       C  0.97773463  0.98744578  0.87395387     0.27100
C1970       C  0.96650796  0.99805310  0.88701601    -0.20100
C1971       C  0.94867864  0.99025916  0.88651499    -0.09700
C1972       C  0.94157477  0.97131188  0.87297093    -0.10300
C1973       C  0.95285883  0.95958424  0.86013158    -0.03200
C1974       C  0.97078109  0.96755855  0.86059307    -0.18300
H1975       H  0.06550594  0.98578872  0.84556769     0.10800
H1976       H  0.03442466  0.97223304  0.84347335     0.10900
H1977       H  0.02324788  0.04458422  0.88340018     0.10500
H1978       H  0.05445747  0.05812751  0.88561867     0.11600
H1979       H  0.00335686  0.98801268  0.84953291     0.11700
H1980       H  0.00124556  0.00600363  0.88739342     0.13600
H1981       H  0.97149815  0.01299353  0.89755761     0.10100
H1982       H  0.94041027  0.99944113  0.89672549     0.12200
H1983       H  0.94779527  0.94477711  0.84958760     0.08900
H1984       H  0.97903155  0.95787270  0.85052918     0.11600
C1985       C  0.87103388  0.46279933  0.94213707    -0.03000
C1986       C  0.85594475  0.47596125  0.95003915    -0.05600
C1987       C  0.85456528  0.47662239  0.96777987    -0.20700
C1988       C  0.86835101  0.46483491  0.97803695     0.25000
C1989       C  0.88353080  0.45194005  0.97016202    -0.18200
C1990       C  0.88481972  0.45084021  0.95241816    -0.08200
C1991       C  0.86617651  0.46487514  0.99683459    -0.18500
C1992       C  0.87972954  0.46818814  0.00770629    -0.23300
C1993       C  0.87762985  0.46848449  0.02649769     0.27100
C1994       C  0.88960611  0.48711343  0.03635507    -0.20100
C1995       C  0.88838232  0.48734045  0.05408436    -0.09700
C1996       C  0.87536877  0.46826129  0.06242179    -0.10300
C1997       C  0.86347318  0.44922695  0.05257149    -0.03200
C1998       C  0.86451726  0.44948465  0.03477804    -0.18300
H1999       H  0.84505104  0.48521894  0.94250960     0.10800
H2000       H  0.84269040  0.48645841  0.97352399     0.10900
H2001       H  0.89424425  0.44185732  0.97765212     0.10500
H2002       H  0.89660926  0.44047974  0.94674838     0.11600
H2003       H  0.85290941  0.46382922  0.00181685     0.11700
H2004       H  0.89278941  0.47272270  0.00269936     0.13600
H2005       H  0.89991969  0.50168649  0.03030095     0.10100
H2006       H  0.89785706  0.50201981  0.06128682     0.12200
H2007       H  0.85336250  0.43413651  0.05861823     0.08900
H2008       H  0.85533938  0.43415568  0.02756966     0.11600
C2009       C  0.86543105  0.58621932  0.86991102    -0.03000
C2010       C  0.87168266  0.60038456  0.85465740    -0.05600
C2011       C  0.87197837  0.63559561  0.85228955    -0.20700
C2012       C  0.86642276  0.65752423  0.86524732     0.25000
C2013       C  0.85930104  0.64344763  0.88021813    -0.18200
C2014       C  0.85871186  0.60798902  0.88248028    -0.08200
C2015       C  0.86868860  0.69479732  0.86282663    -0.18500
C2016       C  0.87285224  0.71578013  0.87574521    -0.23300
C2017       C  0.87588796  0.75305068  0.87391269     0.27100
C2018       C  0.87421165  0.77332793  0.88847348    -0.20100
C2019       C  0.87620080  0.80855922  0.88755074    -0.09700
C2020       C  0.88014939  0.82457924  0.87204082    -0.10300
C2021       C  0.88273000  0.80428806  0.85753494    -0.03200
C2022       C  0.88057009  0.76876009  0.85843263    -0.18300
H2023       H  0.87674318  0.58415944  0.84464598     0.10800
H2024       H  0.87727096  0.64577395  0.84057215     0.10900
H2025       H  0.85437187  0.65975821  0.89023618     0.10500
H2026       H  0.85374477  0.59770379  0.89429932     0.11600
H2027       H  0.86790994  0.70457849  0.84996091     0.11700
H2028       H  0.87382825  0.70529302  0.88848142     0.13600
H2029       H  0.87087910  0.76194834  0.90058852     0.10100
H2030       H  0.87427709  0.82341440  0.89901424     0.12200
H2031       H  0.88579454  0.81594093  0.84542825     0.08900
H2032       H  0.88255988  0.75387548  0.84702228     0.11600
C2033       C  0.86786359  0.08754177  0.87264797    -0.03000
C2034       C  0.85879476  0.10557457  0.85997776    -0.05600
C2035       C  0.85969415  0.14122666  0.85934225    -0.20700
C2036       C  0.86966697  0.15953445  0.87131439     0.25000
C2037       C  0.87807049  0.14144103  0.88442359    -0.18200
C2038       C  0.87726856  0.10594325  0.88498760    -0.08200
C2039       C  0.87080087  0.19732339  0.86983887    -0.18500
C2040       C  0.88337748  0.21630606  0.87738955    -0.23300
C2041       C  0.88422046  0.25404900  0.87616697     0.27100
C2042       C  0.89207278  0.27257097  0.88943911    -0.20100
C2043       C  0.89249979  0.30823536  0.88907791    -0.09700
C2044       C  0.88523693  0.32608438  0.87530149    -0.10300
C2045       C  0.87810703  0.30739980  0.86165116    -0.03200
C2046       C  0.87761476  0.27182409  0.86205724    -0.18300
H2047       H  0.85141829  0.09212609  0.85029770     0.10800
H2048       H  0.85287365  0.15450846  0.84924582     0.10900
H2049       H  0.88523859  0.15434799  0.89437831     0.10500
H2050       H  0.88417247  0.09285553  0.89509008     0.11600
H2051       H  0.86091744  0.20978677  0.86210204     0.11700
H2052       H  0.89327796  0.20420953  0.88520731     0.13600
H2053       H  0.89747186  0.25941810  0.90035075     0.10100
H2054       H  0.89810740  0.32180409  0.89977400     0.12200
H2055       H  0.87257184  0.32028176  0.85072864     0.08900
H2056       H  0.87209847  0.25842331  0.85128159     0.11600
C2057       C  0.94325527  0.47778409  0.88226553    -0.03000
C2058       C  0.95436183  0.45511634  0.89094021    -0.05600
C2059       C  0.97248890  0.46089971  0.89154117    -0.20700
C2060       C  0.97989395  0.48972160  0.88376246     0.25000
C2061       C  0.96874268  0.51271429  0.87532294    -0.18200
C2062       C  0.95066720  0.50677538  0.87457953    -0.08200
C2063       C  0.99932271  0.49372036  0.88363292    -0.18500
C2064       C  0.00752231  0.52396724  0.88179706    -0.23300
C2065       C  0.02692760  0.52743002  0.88057958     0.27100
C2066       C  0.03490028  0.55808355  0.88563925    -0.20100
C2067       C  0.05307125  0.56249897  0.88420672    -0.09700
C2068       C  0.06363492  0.53655509  0.87733397    -0.10300
C2069       C  0.05560430  0.50606568  0.87202110    -0.03200
C2070       C  0.03748540  0.50149963  0.87365633    -0.18300
H2071       H  0.94910074  0.43251798  0.89695491     0.10800
H2072       H  0.98078836  0.44263661  0.89800823     0.10900
H2073       H  0.97394928  0.53472847  0.86878233     0.10500
H2074       H  0.94250616  0.52478300  0.86778425     0.11600
H2075       H  0.00711620  0.47085701  0.88546449     0.11700
H2076       H  0.99984719  0.54726439  0.88166467     0.13600
H2077       H  0.02704737  0.57861237  0.89082582     0.10100
H2078       H  0.05882853  0.58632854  0.88836565     0.12200
H2079       H  0.06334774  0.48556293  0.86666716     0.08900
H2080       H  0.03176665  0.47792535  0.86914097     0.11600
C2081       C  0.86360136  0.55882453  0.56522772    -0.03000
C2082       C  0.84820650  0.54730995  0.55718662    -0.05600
C2083       C  0.84626925  0.54978111  0.53953294    -0.20700
C2084       C  0.85980969  0.56305436  0.52946259     0.25000
C2085       C  0.87513609  0.57499735  0.53747713    -0.18200
C2086       C  0.87696482  0.57306505  0.55517357    -0.08200
C2087       C  0.85757150  0.56426206  0.51067560    -0.18500
C2088       C  0.87099313  0.55870604  0.49990772    -0.23300
C2089       C  0.86902340  0.55722811  0.48110416     0.27100
C2090       C  0.88037343  0.53612887  0.47182727    -0.20100
C2091       C  0.87953370  0.53486425  0.45408881    -0.09700
C2092       C  0.86757151  0.55533814  0.44511697    -0.10300
C2093       C  0.85614590  0.57653117  0.45439169    -0.03200
C2094       C  0.85677509  0.57731231  0.47222588    -0.18300
H2095       H  0.83758094  0.53653265  0.56455434     0.10800
H2096       H  0.83428429  0.54067526  0.53368171     0.10900
H2097       H  0.88564330  0.58616153  0.53010298     0.10500
H2098       H  0.88892445  0.58242210  0.56096409     0.11600
H2099       H  0.84437095  0.56694594  0.50565608     0.11700
H2100       H  0.88380609  0.55253432  0.50511093     0.13600
H2101       H  0.88996364  0.52051894  0.47835077     0.10100
H2102       H  0.88857475  0.51837676  0.44737326     0.12200
H2103       H  0.84678985  0.59263564  0.44786042     0.08900
H2104       H  0.84804401  0.59432314  0.47898895     0.11600
C2105       C  0.93783896  0.53531513  0.62410917    -0.03000
C2106       C  0.94898650  0.56120041  0.61817013    -0.05600
C2107       C  0.96717470  0.55597417  0.61744521    -0.20700
C2108       C  0.97454854  0.52462188  0.62232777     0.25000
C2109       C  0.96335609  0.49878079  0.62826403    -0.18200
C2110       C  0.94527084  0.50408780  0.62913708    -0.08200
C2111       C  0.99395518  0.52022000  0.62198840    -0.18500
C2112       C  0.00186166  0.48952931  0.62067162    -0.23300
C2113       C  0.02121904  0.48455967  0.62130371     0.27100
C2114       C  0.02850121  0.45491742  0.61416706    -0.20100
C2115       C  0.04657805  0.44873551  0.61505803    -0.09700
C2116       C  0.05777398  0.47192185  0.62332027    -0.10300
C2117       C  0.05043593  0.50143403  0.63061190    -0.03200
C2118       C  0.03240382  0.50767754  0.62964407    -0.18300
H2119       H  0.94369232  0.58563538  0.61436242     0.10800
H2120       H  0.97552012  0.57647848  0.61304087     0.10900
H2121       H  0.96850991  0.47468887  0.63268618     0.10500
H2122       H  0.93708820  0.48362640  0.63386009     0.11600
H2123       H  0.00189702  0.54316187  0.62239443     0.11700
H2124       H  0.99390259  0.46697260  0.61857515     0.13600
H2125       H  0.02016503  0.43648273  0.60783620     0.10100
H2126       H  0.05176014  0.42572709  0.60934398     0.12200
H2127       H  0.05863095  0.51977567  0.63716757     0.08900
H2128       H  0.02727777  0.53023851  0.63579340     0.11600
C2129       C  0.87720488  0.46620047  0.81092132    -0.03000
C2130       C  0.86267228  0.45526447  0.80136705    -0.05600
C2131       C  0.86105844  0.46436088  0.78425993    -0.20700
C2132       C  0.87404662  0.48403672  0.77632530     0.25000
C2133       C  0.88880783  0.49421707  0.78578983    -0.18200
C2134       C  0.89035830  0.48535237  0.80288487    -0.08200
C2135       C  0.87140894  0.49505806  0.75848547    -0.18500
C2136       C  0.88480480  0.50260033  0.74805161    -0.23300
C2137       C  0.88223558  0.51313061  0.73018136     0.27100
C2138       C  0.89494316  0.50391443  0.71820591    -0.20100
C2139       C  0.89284145  0.51252862  0.70115120    -0.09700
C2140       C  0.87811565  0.53117424  0.69574084    -0.10300
C2141       C  0.86569591  0.54165095  0.70784606    -0.03200
C2142       C  0.86769038  0.53256102  0.72494370    -0.18300
H2143       H  0.85223457  0.44077814  0.80726052     0.10800
H2144       H  0.84952510  0.45638058  0.77725500     0.10900
H2145       H  0.89887192  0.51015622  0.78027245     0.10500
H2146       H  0.90166054  0.49432736  0.80993827     0.11600
H2147       H  0.85807553  0.49560490  0.75361298     0.11700
H2148       H  0.89820055  0.49865079  0.75230013     0.13600
H2149       H  0.90635343  0.48931631  0.72199965     0.10100
H2150       H  0.90273344  0.50434100  0.69216119     0.12200
H2151       H  0.85427426  0.55618164  0.70404989     0.08900
H2152       H  0.85793560  0.54089282  0.73402818     0.11600
C2153       C  0.87487903  0.04938018  0.55765041    -0.03000
C2154       C  0.88254265  0.02198287  0.54887064    -0.05600
C2155       C  0.88294707  0.02160519  0.53112547    -0.20700
C2156       C  0.87584033  0.04864176  0.52170106     0.25000
C2157       C  0.86813323  0.07612690  0.53050274    -0.18200
C2158       C  0.86769915  0.07645751  0.54826938    -0.08200
C2159       C  0.87634372  0.04633274  0.50282020    -0.18500
C2160       C  0.87313487  0.07262255  0.49227143    -0.23300
C2161       C  0.87331469  0.06932099  0.47346671     0.27100
C2162       C  0.86324018  0.09212986  0.46385132    -0.20100
C2163       C  0.86285619  0.08982079  0.44615179    -0.09700
C2164       C  0.87271053  0.06479515  0.43761534    -0.10300
C2165       C  0.88311612  0.04237748  0.44720605    -0.03200
C2166       C  0.88346028  0.04464447  0.46495285    -0.18300
H2167       H  0.88808835  0.00059618  0.55570036     0.10800
H2168       H  0.88884671  0.00000466  0.52472411     0.10900
H2169       H  0.86208387  0.09716305  0.52388841     0.10500
H2170       H  0.86160587  0.09786213  0.55465459     0.11600
H2171       H  0.87943965  0.02157712  0.49744756     0.11700
H2172       H  0.86971791  0.09739892  0.49736614     0.13600
H2173       H  0.85544069  0.11155150  0.47007529     0.10100
H2174       H  0.85474805  0.10762746  0.43916667     0.12200
H2175       H  0.89098313  0.02304789  0.44100955     0.08900
H2176       H  0.89188152  0.02736529  0.47187902     0.11600
C2177       C  0.87438542  0.68040236  0.63606064    -0.03000
C2178       C  0.86691810  0.69731052  0.65007812    -0.05600
C2179       C  0.86498779  0.73274499  0.65003661    -0.20700
C2180       C  0.87024463  0.75197957  0.63592486     0.25000
C2181       C  0.87853082  0.73527191  0.62226789    -0.18200
C2182       C  0.88053972  0.69987305  0.62233697    -0.08200
C2183       C  0.86700023  0.78931741  0.63592208    -0.18500
C2184       C  0.86512239  0.80750167  0.62153517    -0.23300
C2185       C  0.86280733  0.84500045  0.62130011     0.27100
C2186       C  0.86942329  0.86314618  0.60739073    -0.20100
C2187       C  0.86862399  0.89863593  0.60705477    -0.09700
C2188       C  0.86084764  0.91677131  0.62049122    -0.10300
C2189       C  0.85329635  0.89857903  0.63399688    -0.03200
C2190       C  0.85433939  0.86293826  0.63445556    -0.18300
H2191       H  0.86217045  0.68310134  0.66092982     0.10800
H2192       H  0.85887246  0.74506033  0.66084545     0.10900
H2193       H  0.88348132  0.74933844  0.61148064     0.10500
H2194       H  0.88649316  0.68769427  0.61141355     0.11600
H2195       H  0.86588454  0.80196018  0.64815597     0.11700
H2196       H  0.86614738  0.79485661  0.60930441     0.13600
H2197       H  0.87580080  0.84987197  0.59701230     0.10100
H2198       H  0.87445552  0.91195963  0.59641699     0.12200
H2199       H  0.84721855  0.91193308  0.64450861     0.08900
H2200       H  0.84860323  0.84958857  0.64511236     0.11600
C2201       C  0.86352868  0.41772052  0.62785685    -0.03000
C2202       C  0.85329757  0.40015243  0.61586470    -0.05600
C2203       C  0.85375220  0.36442852  0.61509702    -0.20700
C2204       C  0.86441110  0.34555628  0.62627524     0.25000
C2205       C  0.87405178  0.36324409  0.63872312    -0.18200
C2206       C  0.87368027  0.39876466  0.63941358    -0.08200
C2207       C  0.86497614  0.30766866  0.62462137    -0.18500
C2208       C  0.87746554  0.28773056  0.63170876    -0.23300
C2209       C  0.87792730  0.24997607  0.62990072     0.27100
C2210       C  0.88639186  0.23039529  0.64242170    -0.20100
C2211       C  0.88678497  0.19473309  0.64131052    -0.09700
C2212       C  0.87885271  0.17796502  0.62752373    -0.10300
C2213       C  0.87097118  0.19773541  0.61468122    -0.03200
C2214       C  0.87053628  0.23323363  0.61582242    -0.18300
H2215       H  0.84529905  0.41399389  0.60682927     0.10800
H2216       H  0.84599193  0.35151260  0.60551769     0.10900
H2217       H  0.88187738  0.35005788  0.64807916     0.10500
H2218       H  0.88149393  0.41142821  0.64903614     0.11600
H2219       H  0.85469657  0.29593400  0.61708119     0.11700
H2220       H  0.88771619  0.29899031  0.63941547     0.13600
H2221       H  0.89241696  0.24271494  0.65328466     0.10100
H2222       H  0.89299907  0.18032146  0.65137766     0.12200
H2223       H  0.86492197  0.18576600  0.60373665     0.08900
H2224       H  0.86453583  0.24736482  0.60555833     0.11600
C2225       C  0.93741005  0.02152840  0.62753632    -0.03000
C2226       C  0.94332501  0.99147167  0.61961814    -0.05600
C2227       C  0.96090586  0.98177922  0.62055727    -0.20700
C2228       C  0.97315064  0.00212237  0.62913475     0.25000
C2229       C  0.96735594  0.03228194  0.63709249    -0.18200
C2230       C  0.94961083  0.04178442  0.63637759    -0.08200
C2231       C  0.99170927  0.99052248  0.62972997    -0.18500
C2232       C  0.00541824  0.01209169  0.63007573    -0.23300
C2233       C  0.02391768  0.00037047  0.62870481     0.27100
C2234       C  0.03606178  0.02144165  0.62048493    -0.20100
C2235       C  0.05350226  0.01126443  0.61862074    -0.09700
C2236       C  0.05937442  0.97996713  0.62524970    -0.10300
C2237       C  0.04731015  0.95909391  0.63384653    -0.03200
C2238       C  0.02970966  0.96909403  0.63547348    -0.18300
H2239       H  0.93429902  0.97505653  0.61281691     0.10800
H2240       H  0.96499618  0.95838545  0.61439738     0.10900
H2241       H  0.97641915  0.04818329  0.64412662     0.10500
H2242       H  0.94545664  0.06494442  0.64269565     0.11600
H2243       H  0.99414900  0.96340047  0.62828323     0.11700
H2244       H  0.00300374  0.03936384  0.62975554     0.13600
H2245       H  0.03198067  0.04571698  0.61526357     0.10100
H2246       H  0.06245891  0.02821708  0.61210645     0.12200
H2247       H  0.05144859  0.93501939  0.63923086     0.08900
H2248       H  0.02074471  0.95260029  0.64224399     0.11600
C2249       C  0.86695576  0.03032914  0.68931257    -0.03000
C2250       C  0.85225210  0.01378020  0.69627176    -0.05600
C2251       C  0.85171071  0.00529579  0.71351492    -0.20700
C2252       C  0.86594031  0.01252724  0.72423603     0.25000
C2253       C  0.88062883  0.02938695  0.71740588    -0.18200
C2254       C  0.88109731  0.03828624  0.70012901    -0.08200
C2255       C  0.86458199  0.00337216  0.74255236    -0.18500
C2256       C  0.87847434  0.99555608  0.75243668    -0.23300
C2257       C  0.87675217  0.98615512  0.77073087     0.27100
C2258       C  0.88947136  0.96515951  0.77831258    -0.20100
C2259       C  0.88848511  0.95680875  0.79562466    -0.09700
C2260       C  0.87484689  0.96967962  0.80580882    -0.10300
C2261       C  0.86212159  0.99068244  0.79817036    -0.03200
C2262       C  0.86306349  0.99885623  0.78089765    -0.18300
H2263       H  0.84111149  0.00722818  0.68836999     0.10800
H2264       H  0.84017948  0.99260687  0.71846551     0.10900
H2265       H  0.89164155  0.03615919  0.72541258     0.10500
H2266       H  0.89261509  0.05102811  0.69520674     0.11600
H2267       H  0.85146414  0.00110267  0.74778156     0.11700
H2268       H  0.89145655  0.99447835  0.74680235     0.13600
H2269       H  0.90022618  0.95521987  0.77081315     0.10100
H2270       H  0.89857660  0.94078053  0.80108616     0.12200
H2271       H  0.85153013  0.00139858  0.80561560     0.08900
H2272       H  0.85330488  0.01593040  0.77569290     0.11600
C2273       C  0.37079007  0.79437242  0.56479081    -0.03000
C2274       C  0.38552450  0.80748801  0.55629661    -0.05600
C2275       C  0.38609364  0.80812367  0.53852654    -0.20700
C2276       C  0.37184470  0.79630257  0.52887324     0.25000
C2277       C  0.35710145  0.78313593  0.53735029    -0.18200
C2278       C  0.35660662  0.78213645  0.55510620    -0.08200
C2279       C  0.37308919  0.79660906  0.51003468    -0.18500
C2280       C  0.35899415  0.79917773  0.49977298    -0.23300
C2281       C  0.36029429  0.79902430  0.48093562     0.27100
C2282       C  0.34755918  0.81624228  0.47132632    -0.20100
C2283       C  0.34831491  0.81624215  0.45354667    -0.09700
C2284       C  0.36162970  0.79833783  0.44502074    -0.10300
C2285       C  0.37418966  0.78057777  0.45465430    -0.03200
C2286       C  0.37357451  0.78098505  0.47240466    -0.18300
H2287       H  0.39670757  0.81692410  0.56337426     0.10800
H2288       H  0.39767118  0.81806433  0.53228929     0.10900
H2289       H  0.34609023  0.77288640  0.53032360     0.10500
H2290       H  0.34508510  0.77174961  0.56124929     0.11600
H2291       H  0.38612937  0.79622707  0.50450057     0.11700
H2292       H  0.34610719  0.80310156  0.50529895     0.13600
H2293       H  0.33708305  0.82999114  0.47760780     0.10100
H2294       H  0.33837819  0.82994211  0.44647616     0.12200
H2295       H  0.38458847  0.76645252  0.44846623     0.08900
H2296       H  0.38330692  0.76659558  0.47938038     0.11600
C2297       C  0.19273130  0.92683783  0.61832904    -0.03000
C2298       C  0.20424836  0.93891490  0.63091728    -0.05600
C2299       C  0.22114059  0.92523791  0.63248457    -0.20700
C2300       C  0.22687575  0.89902285  0.62163315     0.25000
C2301       C  0.21564098  0.88803953  0.60853581    -0.18200
C2302       C  0.19878220  0.90173015  0.60694930    -0.08200
C2303       C  0.24460090  0.88402164  0.62444333    -0.18500
C2304       C  0.24952873  0.85281739  0.61893035    -0.23300
C2305       C  0.26716060  0.83797975  0.62238664     0.27100
C2306       C  0.27409967  0.81358109  0.61115379    -0.20100
C2307       C  0.29101904  0.80044047  0.61359072    -0.09700
C2308       C  0.30127866  0.81123101  0.62744534    -0.10300
C2309       C  0.29390754  0.83420908  0.63918656    -0.03200
C2310       C  0.27707057  0.84734260  0.63673125    -0.18300
H2311       H  0.20004729  0.95821219  0.63988156     0.10800
H2312       H  0.22959733  0.93452617  0.64254902     0.10900
H2313       H  0.21972377  0.86889483  0.59947566     0.10500
H2314       H  0.19034072  0.89205394  0.59697069     0.11600
H2315       H  0.25377573  0.89920611  0.63179893     0.11700
H2316       H  0.24055539  0.83754919  0.61140487     0.13600
H2317       H  0.26661667  0.80545796  0.60015939     0.10100
H2318       H  0.29626358  0.78274051  0.60432966     0.12200
H2319       H  0.30131983  0.84275253  0.65014221     0.08900
H2320       H  0.27192072  0.86483353  0.64611509     0.11600
C2321       C  0.36967285  0.29860121  0.55500461    -0.03000
C2322       C  0.38278791  0.31734018  0.54663147    -0.05600
C2323       C  0.38285377  0.32001578  0.52893073    -0.20700
C2324       C  0.36993955  0.30383625  0.51910026     0.25000
C2325       C  0.35671040  0.28520476  0.52743513    -0.18200
C2326       C  0.35661671  0.28258207  0.54519630    -0.08200
C2327       C  0.37051568  0.30814442  0.50031421    -0.18500
C2328       C  0.36312497  0.28623983  0.48918908    -0.23300
C2329       C  0.36398249  0.29019012  0.47034466     0.27100
C2330       C  0.35240464  0.27101927  0.46025902    -0.20100
C2331       C  0.35278804  0.27345767  0.44252906    -0.09700
C2332       C  0.36487054  0.29504399  0.43439600    -0.10300
C2333       C  0.37657394  0.31404976  0.44444690    -0.03200
C2334       C  0.37620120  0.31160142  0.46218715    -0.18300
H2335       H  0.39303938  0.33006926  0.55375357     0.10800
H2336       H  0.39312527  0.33469432  0.52287248     0.10900
H2337       H  0.34620492  0.27321147  0.52038600     0.10500
H2338       H  0.34623449  0.26821401  0.55124567     0.11600
H2339       H  0.37768185  0.33005373  0.49565890     0.11700
H2340       H  0.35605250  0.26428059  0.49398060     0.13600
H2341       H  0.34296381  0.25409670  0.46612688     0.10100
H2342       H  0.34364625  0.25825326  0.43519675     0.12200
H2343       H  0.38616517  0.33066215  0.43860207     0.08900
H2344       H  0.38577167  0.32608506  0.46929016     0.11600
C2345       C  0.38132818  0.41946384  0.62698625    -0.03000
C2346       C  0.37791389  0.43577580  0.64253599    -0.05600
C2347       C  0.37749030  0.47127653  0.64355789    -0.20700
C2348       C  0.38004969  0.49125085  0.62900911     0.25000
C2349       C  0.38404971  0.47508578  0.61352147    -0.18200
C2350       C  0.38478512  0.43945868  0.61255337    -0.08200
C2351       C  0.37869569  0.52879570  0.63063727    -0.18500
C2352       C  0.37305920  0.54934120  0.61804810    -0.23300
C2353       C  0.37108203  0.58677496  0.62035474     0.27100
C2354       C  0.35879061  0.60480963  0.61053170    -0.20100
C2355       C  0.35673184  0.64012632  0.61255915    -0.09700
C2356       C  0.36707590  0.65804505  0.62436594    -0.10300
C2357       C  0.37946444  0.63988457  0.63404189    -0.03200
C2358       C  0.38151946  0.60484583  0.63200406    -0.18300
H2359       H  0.37528669  0.42105286  0.65388719     0.10800
H2360       H  0.37463129  0.48317741  0.65567586     0.10900
H2361       H  0.38659514  0.48986483  0.60218308     0.10500
H2362       H  0.38743603  0.42755887  0.60039696     0.11600
H2363       H  0.38114766  0.53945420  0.64315293     0.11700
H2364       H  0.36883657  0.53828308  0.60606339     0.13600
H2365       H  0.35070323  0.59150525  0.60134588     0.10100
H2366       H  0.34720083  0.65339540  0.60479644     0.12200
H2367       H  0.38785437  0.65281961  0.64309963     0.08900
H2368       H  0.39158323  0.59220116  0.63936068     0.11600
C2369       C  0.36955709  0.92123134  0.63192186    -0.03000
C2370       C  0.36071259  0.93867013  0.64496170    -0.05600
C2371       C  0.35800487  0.97378516  0.64397640    -0.20700
C2372       C  0.36387113  0.99241830  0.62987707     0.25000
C2373       C  0.37300878  0.97518279  0.61690660    -0.18200
C2374       C  0.37582586  0.93992265  0.61794397    -0.08200
C2375       C  0.36099623  0.02991085  0.62985214    -0.18500
C2376       C  0.36184107  0.05000142  0.61597122    -0.23300
C2377       C  0.36025697  0.08781524  0.61700586     0.27100
C2378       C  0.35501404  0.10658189  0.60264119    -0.20100
C2379       C  0.35448618  0.14236770  0.60312992    -0.09700
C2380       C  0.35952403  0.15990635  0.61792503    -0.10300
C2381       C  0.36454070  0.14109140  0.63229356    -0.03200
C2382       C  0.36494863  0.10561591  0.63185782    -0.18300
H2383       H  0.35570259  0.92511875  0.65591387     0.10800
H2384       H  0.35113429  0.98642451  0.65425262     0.10900
H2385       H  0.37818119  0.98875796  0.60606200     0.10500
H2386       H  0.38262364  0.92721284  0.60765433     0.11600
H2387       H  0.35758926  0.04130189  0.64198059     0.11700
H2388       H  0.36353700  0.03866586  0.60349738     0.13600
H2389       H  0.35155536  0.09354220  0.59096802     0.10100
H2390       H  0.35087412  0.15629151  0.59177880     0.12200
H2391       H  0.36863558  0.15392605  0.64383458     0.08900
H2392       H  0.36967000  0.09244333  0.64302127     0.11600
C2393       C  0.19104515  0.41792047  0.62545900    -0.03000
C2394       C  0.19526320  0.38867514  0.63497024    -0.05600
C2395       C  0.21141966  0.37240730  0.63297744    -0.20700
C2396       C  0.22401249  0.38522622  0.62172024     0.25000
C2397       C  0.22004948  0.41485762  0.61236471    -0.18200
C2398       C  0.20366056  0.43090861  0.61413794    -0.08200
C2399       C  0.24087037  0.36638160  0.61990141    -0.18500
C2400       C  0.25627569  0.38176317  0.61667166    -0.23300
C2401       C  0.27334642  0.36341557  0.61748019     0.27100
C2402       C  0.28793586  0.38068252  0.62404332    -0.20100
C2403       C  0.30411856  0.36429907  0.62553275    -0.09700
C2404       C  0.30630176  0.33041163  0.62004738    -0.10300
C2405       C  0.29181690  0.31324471  0.61301374    -0.03200
C2406       C  0.27540943  0.32947849  0.61191488    -0.18300
H2407       H  0.18585841  0.37765089  0.64368224     0.10800
H2408       H  0.21410291  0.34964031  0.64030734     0.10900
H2409       H  0.22937132  0.42508717  0.60334680     0.10500
H2410       H  0.20078292  0.45316078  0.60650671     0.11600
H2411       H  0.24085095  0.33940590  0.62300004     0.11700
H2412       H  0.25662308  0.40929357  0.61529267     0.13600
H2413       H  0.28673956  0.40684637  0.62830532     0.10100
H2414       H  0.31506942  0.37849616  0.63073167     0.12200
H2415       H  0.29314684  0.28728581  0.60850870     0.08900
H2416       H  0.26444665  0.31570301  0.60648504     0.11600
C2417       C  0.37218345  0.72032480  0.94488636    -0.03000
C2418       C  0.35909956  0.73850421  0.95363004    -0.05600
C2419       C  0.35894599  0.73953541  0.97140668    -0.20700
C2420       C  0.37178095  0.72233854  0.98090968     0.25000
C2421       C  0.38500562  0.70443817  0.97214777    -0.18200
C2422       C  0.38513248  0.70333703  0.95437069    -0.08200
C2423       C  0.37114940  0.72464052  0.99982653    -0.18500
C2424       C  0.37929069  0.70248414  0.01030340    -0.23300
C2425       C  0.37877173  0.70429233  0.02923985     0.27100
C2426       C  0.39092797  0.68479606  0.03847079    -0.20100
C2427       C  0.39074619  0.68459385  0.05623747    -0.09700
C2428       C  0.37829333  0.70379365  0.06528370    -0.10300
C2429       C  0.36614428  0.72347334  0.05609155    -0.03200
C2430       C  0.36632609  0.72368830  0.03829009    -0.18300
H2431       H  0.34892510  0.75192414  0.94674573     0.10800
H2432       H  0.34867859  0.75372585  0.97777183     0.10900
H2433       H  0.39551396  0.69175948  0.97884590     0.10500
H2434       H  0.39550199  0.68936984  0.94805298     0.11600
H2435       H  0.36345299  0.74527522  0.00513617     0.11700
H2436       H  0.38681366  0.68170373  0.00488725     0.13600
H2437       H  0.40062803  0.66951826  0.03189489     0.10100
H2438       H  0.40031128  0.66914415  0.06287504     0.12200
H2439       H  0.35632959  0.73847302  0.06265134     0.08900
H2440       H  0.35643095  0.73849898  0.03182069     0.11600
C2441       C  0.30732366  0.68530309  0.88092925    -0.03000
C2442       C  0.29357839  0.70517795  0.88747488    -0.05600
C2443       C  0.27652000  0.69183608  0.88837673    -0.20700
C2444       C  0.27301932  0.65817196  0.88320036     0.25000
C2445       C  0.28682082  0.63835293  0.87674122    -0.18200
C2446       C  0.30370916  0.65179475  0.87557133    -0.08200
C2447       C  0.25471358  0.64513209  0.88338580    -0.18500
C2448       C  0.25065644  0.61173461  0.88477051    -0.23300
C2449       C  0.23247648  0.59862333  0.88275304     0.27100
C2450       C  0.22723438  0.56873784  0.89119423    -0.20100
C2451       C  0.21018402  0.55579783  0.88911638    -0.09700
C2452       C  0.19823366  0.57211751  0.87820444    -0.10300
C2453       C  0.20375513  0.60147319  0.86943879    -0.03200
C2454       C  0.22059347  0.61457418  0.87170101    -0.18300
H2455       H  0.29595856  0.73109592  0.89162941     0.10800
H2456       H  0.26603236  0.70779399  0.89315794     0.10900
H2457       H  0.28455069  0.61273019  0.87213101     0.10500
H2458       H  0.31401443  0.63573558  0.87050758     0.11600
H2459       H  0.24423906  0.66376916  0.88235359     0.11700
H2460       H  0.26090619  0.59336652  0.88756646     0.13600
H2461       H  0.23627074  0.55567987  0.89958371     0.10100
H2462       H  0.20635310  0.53318050  0.89605634     0.12200
H2463       H  0.19494729  0.61481228  0.86093823     0.08900
H2464       H  0.22435309  0.63693407  0.86453397     0.11600
C2465       C  0.36444812  0.77387947  0.69616881    -0.03000
C2466       C  0.35316309  0.79331741  0.70646139    -0.05600
C2467       C  0.35194882  0.78679833  0.72392081    -0.20700
C2468       C  0.36215429  0.76112328  0.73142685     0.25000
C2469       C  0.37325594  0.74143432  0.72109353    -0.18200
C2470       C  0.37441007  0.74779412  0.70370329    -0.08200
C2471       C  0.36081821  0.75483181  0.74996563    -0.18500
C2472       C  0.37451837  0.74348094  0.75914351    -0.23300
C2473       C  0.37375847  0.73761394  0.77770363     0.27100
C2474       C  0.38909255  0.74210961  0.78727973    -0.20100
C2475       C  0.38898395  0.73689039  0.80480954    -0.09700
C2476       C  0.37362553  0.72615846  0.81305309    -0.10300
C2477       C  0.35836419  0.72064705  0.80343055    -0.03200
C2478       C  0.35837825  0.72657815  0.78588986    -0.18300
H2479       H  0.34521913  0.81341770  0.70102519     0.10800
H2480       H  0.34317970  0.80208490  0.73161887     0.10900
H2481       H  0.38087362  0.72069369  0.72634813     0.10500
H2482       H  0.38309404  0.73206546  0.69614469     0.11600
H2483       H  0.34864548  0.76148809  0.75631400     0.11700
H2484       H  0.38719054  0.74036020  0.75304282     0.13600
H2485       H  0.40113550  0.75021888  0.78120626     0.10100
H2486       H  0.40095773  0.74111378  0.81192748     0.12200
H2487       H  0.34635584  0.71242903  0.80951945     0.08900
H2488       H  0.34646054  0.72207219  0.77875121     0.11600
C2489       C  0.37671840  0.21532637  0.93663426    -0.03000
C2490       C  0.39217685  0.20297483  0.94423070    -0.05600
C2491       C  0.39410655  0.20295405  0.96187122    -0.20700
C2492       C  0.38055435  0.21472202  0.97234402     0.25000
C2493       C  0.36512906  0.22742060  0.96481724    -0.18200
C2494       C  0.36324843  0.22775437  0.94712093    -0.08200
C2495       C  0.38306193  0.21395101  0.99102665    -0.18500
C2496       C  0.36969980  0.20913437  0.00188860    -0.23300
C2497       C  0.37205527  0.20677329  0.02055495     0.27100
C2498       C  0.35993384  0.18770093  0.02994775    -0.20100
C2499       C  0.36126057  0.18569230  0.04760483    -0.09700
C2500       C  0.37457153  0.20331612  0.05631548    -0.10300
C2501       C  0.38676349  0.22244612  0.04692931    -0.03200
C2502       C  0.38556541  0.22408538  0.02919414    -0.18300
H2503       H  0.40287034  0.19338883  0.93654139     0.10800
H2504       H  0.40614708  0.19328142  0.96737070     0.10900
H2505       H  0.35461779  0.23756699  0.97254704     0.10500
H2506       H  0.35124750  0.23766259  0.94166581     0.11600
H2507       H  0.39640686  0.21492404  0.99583764     0.11700
H2508       H  0.35661948  0.20464007  0.99688447     0.13600
H2509       H  0.34937089  0.17429890  0.02358879     0.10100
H2510       H  0.35159991  0.17089290  0.05446579     0.12200
H2511       H  0.39714129  0.23634418  0.05329791     0.08900
H2512       H  0.39490806  0.23965199  0.02236605     0.11600
C2513       C  0.36473216  0.84730703  0.87541201    -0.03000
C2514       C  0.36978410  0.86214638  0.85993429    -0.05600
C2515       C  0.36979050  0.89737002  0.85796807    -0.20700
C2516       C  0.36514693  0.91861911  0.87152748     0.25000
C2517       C  0.35960595  0.90395177  0.88694512    -0.18200
C2518       C  0.35926384  0.86841013  0.88881993    -0.08200
C2519       C  0.36614801  0.95585331  0.86889160    -0.18500
C2520       C  0.37056818  0.97797936  0.88122950    -0.23300
C2521       C  0.37294510  0.01489738  0.87786792     0.27100
C2522       C  0.38430793  0.03389840  0.88823007    -0.20100
C2523       C  0.38663414  0.06881420  0.88546000    -0.09700
C2524       C  0.37752867  0.08542604  0.87230366    -0.10300
C2525       C  0.36623912  0.06630503  0.86188863    -0.03200
C2526       C  0.36387425  0.03153021  0.86469588    -0.18300
H2527       H  0.37390790  0.84642722  0.84933484     0.10800
H2528       H  0.37391370  0.90810005  0.84593211     0.10900
H2529       H  0.35552917  0.91983707  0.89748157     0.10500
H2530       H  0.35530408  0.85750114  0.90085622     0.11600
H2531       H  0.36483711  0.96482515  0.85590714     0.11700
H2532       H  0.37370390  0.96850101  0.89383946     0.13600
H2533       H  0.39136988  0.02170465  0.89851281     0.10100
H2534       H  0.39528457  0.08290096  0.89383524     0.12200
H2535       H  0.35875068  0.07840753  0.85187317     0.08900
H2536       H  0.35453901  0.01806053  0.85680364     0.11600
C2537       C  0.36671885  0.34680517  0.87703967    -0.03000
C2538       C  0.35748297  0.36288787  0.89026691    -0.05600
C2539       C  0.35877763  0.39828383  0.89261283    -0.20700
C2540       C  0.36915234  0.41820949  0.88169675     0.25000
C2541       C  0.37833070  0.40194625  0.86848783    -0.18200
C2542       C  0.37701609  0.36687464  0.86613668    -0.08200
C2543       C  0.37069658  0.45561640  0.88458055    -0.18500
C2544       C  0.37476343  0.47737171  0.87194055    -0.23300
C2545       C  0.37647288  0.51482941  0.87394767     0.27100
C2546       C  0.37442356  0.53506518  0.85941946    -0.20100
C2547       C  0.37571994  0.57040743  0.86043981    -0.09700
C2548       C  0.37938650  0.58647288  0.87600314    -0.10300
C2549       C  0.38210924  0.56627882  0.89051253    -0.03200
C2550       C  0.38060118  0.53068129  0.88952277    -0.18300
H2551       H  0.34962249  0.34807451  0.89901393     0.10800
H2552       H  0.35171403  0.41011926  0.90299791     0.10900
H2553       H  0.38700499  0.41593661  0.86016901     0.10500
H2554       H  0.38444725  0.35537870  0.85590051     0.11600
H2555       H  0.36774143  0.46541716  0.89716234     0.11700
H2556       H  0.37596244  0.46765145  0.85907799     0.13600
H2557       H  0.37147342  0.52350680  0.84723206     0.10100
H2558       H  0.37363952  0.58523953  0.84901256     0.12200
H2559       H  0.38490261  0.57802936  0.90268015     0.08900
H2560       H  0.38275889  0.51576851  0.90088665     0.11600
C2561       C  0.30790608  0.18099977  0.87154126    -0.03000
C2562       C  0.30522926  0.14811149  0.86484670    -0.05600
C2563       C  0.28889891  0.13237715  0.86582957    -0.20700
C2564       C  0.27463375  0.14929287  0.87313537     0.25000
C2565       C  0.27704949  0.18246329  0.87964383    -0.18200
C2566       C  0.29365010  0.19807526  0.87901766    -0.08200
C2567       C  0.25768908  0.13081446  0.87412456    -0.18500
C2568       C  0.24208359  0.14610441  0.87203885    -0.23300
C2569       C  0.22544696  0.12651451  0.87076829     0.27100
C2570       C  0.21218312  0.13871449  0.86007882    -0.20100
C2571       C  0.19637077  0.12108001  0.85845731    -0.09700
C2572       C  0.19325346  0.09103838  0.86776470    -0.10300
C2573       C  0.20652060  0.07882050  0.87857140    -0.03200
C2574       C  0.22250848  0.09630618  0.88000657    -0.18300
H2575       H  0.31593680  0.13397531  0.85917253     0.10800
H2576       H  0.28738671  0.10683615  0.86078236     0.10900
H2577       H  0.26627562  0.19590917  0.88558759     0.10500
H2578       H  0.29534238  0.22330869  0.88435733     0.11600
H2579       H  0.25822043  0.10318598  0.87482233     0.11700
H2580       H  0.24166014  0.17331512  0.86953308     0.13600
H2581       H  0.21410398  0.16190656  0.85286061     0.10100
H2582       H  0.18641299  0.13152548  0.85013636     0.12200
H2583       H  0.20446717  0.05605206  0.88606842     0.08900
H2584       H  0.23237187  0.08660119  0.88863658     0.11600
C2585       C  0.37070440  0.23101651  0.80504845    -0.03000
C2586       C  0.35771792  0.21434078  0.79543672    -0.05600
C2587       C  0.35600781  0.22066283  0.77800007    -0.20700
C2588       C  0.36746662  0.24315660  0.76971422     0.25000
C2589       C  0.38051030  0.25976207  0.77929363    -0.18200
C2590       C  0.38205053  0.25386263  0.79677193    -0.08200
C2591       C  0.36514129  0.24971168  0.75123107    -0.18500
C2592       C  0.37867977  0.25662892  0.74081034    -0.23300
C2593       C  0.37661290  0.26225624  0.72223912     0.27100
C2594       C  0.39020046  0.25222247  0.71133296    -0.20100
C2595       C  0.38889165  0.25748421  0.69381052    -0.09700
C2596       C  0.37412953  0.27374511  0.68680588    -0.10300
C2597       C  0.36063270  0.28442247  0.69775306    -0.03200
C2598       C  0.36179126  0.27850266  0.71529949    -0.18300
H2599       H  0.34866628  0.19684245  0.80144683     0.10800
H2600       H  0.34576662  0.20777301  0.77092817     0.10900
H2601       H  0.38928023  0.27791494  0.77339267     0.10500
H2602       H  0.39212210  0.26728484  0.80381948     0.11600
H2603       H  0.35207630  0.24677885  0.74591064     0.11700
H2604       H  0.39194718  0.25602939  0.74584271     0.13600
H2605       H  0.40181060  0.23993620  0.71638068     0.10100
H2606       H  0.39957057  0.24915113  0.68574586     0.12200
H2607       H  0.34911421  0.29704297  0.69273337     0.08900
H2608       H  0.35126608  0.28723704  0.72343342     0.11600
C2609       C  0.62898309  0.71287646  0.56469226    -0.03000
C2610       C  0.64256443  0.69517410  0.55643763    -0.05600
C2611       C  0.64375431  0.69517359  0.53871477    -0.20700
C2612       C  0.63122811  0.71224980  0.52883714     0.25000
C2613       C  0.61760184  0.72996182  0.53704846    -0.18200
C2614       C  0.61653578  0.73035063  0.55480336    -0.08200
C2615       C  0.63308879  0.71200031  0.51006285    -0.18500
C2616       C  0.61926998  0.71336054  0.49944648    -0.23300
C2617       C  0.62107743  0.71183812  0.48068648     0.27100
C2618       C  0.60754861  0.69711088  0.47110140    -0.20100
C2619       C  0.60861128  0.69570478  0.45339210    -0.09700
C2620       C  0.62311595  0.70961934  0.44482693    -0.10300
C2621       C  0.63663348  0.72465785  0.45443036    -0.03200
C2622       C  0.63565524  0.72568805  0.47219107    -0.18300
H2623       H  0.65241588  0.68160948  0.56368239     0.10800
H2624       H  0.65443098  0.68155019  0.53268269     0.10900
H2625       H  0.60797223  0.74410560  0.52981739     0.10500
H2626       H  0.60595090  0.74430952  0.56078449     0.11600
H2627       H  0.64615811  0.70840981  0.50487888     0.11700
H2628       H  0.60608028  0.71337356  0.50465085     0.13600
H2629       H  0.59614036  0.68648691  0.47735471     0.10100
H2630       H  0.59790893  0.68415008  0.44640033     0.12200
H2631       H  0.64791857  0.73584365  0.44822364     0.08900
H2632       H  0.64610663  0.73801588  0.47919749     0.11600
C2633       C  0.69272394  0.68543834  0.63492953    -0.03000
C2634       C  0.70345761  0.69473585  0.64869717    -0.05600
C2635       C  0.72040039  0.68110060  0.65029065    -0.20700
C2636       C  0.72693001  0.65779588  0.63824325     0.25000
C2637       C  0.71637040  0.64947523  0.62417883    -0.18200
C2638       C  0.69950971  0.66298978  0.62260632    -0.08200
C2639       C  0.74495023  0.64360738  0.64042541    -0.18500
C2640       C  0.75041390  0.61416758  0.63319131    -0.23300
C2641       C  0.76860342  0.60037520  0.63460120     0.27100
C2642       C  0.77424287  0.57599494  0.62267877    -0.20100
C2643       C  0.79141702  0.56330718  0.62304619    -0.09700
C2644       C  0.80335748  0.57454196  0.63546542    -0.10300
C2645       C  0.79751434  0.59798317  0.64778227    -0.03200
C2646       C  0.78037035  0.61067020  0.64740593    -0.18300
H2647       H  0.69863800  0.71190194  0.65841409     0.10800
H2648       H  0.72833482  0.68834029  0.66113890     0.10900
H2649       H  0.72106490  0.63284887  0.61420761     0.10500
H2650       H  0.69171267  0.65557723  0.61169571     0.11600
H2651       H  0.75387728  0.65818090  0.64832371     0.11700
H2652       H  0.74132286  0.59957224  0.62546219     0.13600
H2653       H  0.76543371  0.56728374  0.61277041     0.10100
H2654       H  0.79544530  0.54531212  0.61336138     0.12200
H2655       H  0.80629994  0.60705063  0.65762127     0.08900
H2656       H  0.77649570  0.62842339  0.65721623     0.11600
C2657       C  0.55854342  0.73182890  0.62838352    -0.03000
C2658       C  0.55145902  0.75010915  0.61462979    -0.05600
C2659       C  0.53351530  0.75715857  0.61380665    -0.20700
C2660       C  0.52215054  0.74655578  0.62677820     0.25000
C2661       C  0.52915221  0.72754634  0.64040336    -0.18200
C2662       C  0.54715101  0.72027625  0.64116857    -0.08200
C2663       C  0.50317129  0.75548468  0.62530530    -0.18500
C2664       C  0.49179123  0.75496011  0.63840541    -0.23300
C2665       C  0.47282822  0.76356901  0.63676833     0.27100
C2666       C  0.46110271  0.74957306  0.64855656    -0.20100
C2667       C  0.44316310  0.75639752  0.64751923    -0.09700
C2668       C  0.43643078  0.77786401  0.63476522    -0.10300
C2669       C  0.44820300  0.79278041  0.62321599    -0.03200
C2670       C  0.46622892  0.78568537  0.62417832    -0.18300
H2671       H  0.55981020  0.75912335  0.60445581     0.10800
H2672       H  0.52852696  0.77142816  0.60306158     0.10900
H2673       H  0.52086746  0.71786810  0.65043027     0.10500
H2674       H  0.55217517  0.70597796  0.65187979     0.11600
H2675       H  0.49851355  0.76321491  0.61285723     0.11700
H2676       H  0.49626079  0.74703682  0.65086865     0.13600
H2677       H  0.46580973  0.73276016  0.65847512     0.10100
H2678       H  0.43453015  0.74454982  0.65669963     0.12200
H2679       H  0.44346255  0.80950718  0.61328929     0.08900
H2680       H  0.47491270  0.79784107  0.61517420     0.11600
C2681       C  0.62581489  0.20318807  0.55543034    -0.03000
C2682       C  0.61353162  0.18184789  0.54736193    -0.05600
C2683       C  0.61308206  0.17919865  0.52961738    -0.20700
C2684       C  0.62480460  0.19789919  0.51950426     0.25000
C2685       C  0.63732409  0.21873902  0.52761188    -0.18200
C2686       C  0.63773822  0.22146395  0.54532812    -0.08200
C2687       C  0.62381049  0.19433332  0.50065301    -0.18500
C2688       C  0.63038735  0.21755055  0.48973459    -0.23300
C2689       C  0.62956629  0.21451166  0.47087124     0.27100
C2690       C  0.64106205  0.23445447  0.46111631    -0.20100
C2691       C  0.64059967  0.23328175  0.44335938    -0.09700
C2692       C  0.62846701  0.21233084  0.43487831    -0.10300
C2693       C  0.61687535  0.19243711  0.44461602    -0.03200
C2694       C  0.61738833  0.19350150  0.46239984    -0.18300
H2695       H  0.60420774  0.16724935  0.55474692     0.10800
H2696       H  0.60342536  0.16267112  0.52375731     0.10900
H2697       H  0.64706866  0.23259595  0.52044219     0.10500
H2698       H  0.64753844  0.23774905  0.55111657     0.11600
H2699       H  0.61719904  0.17190773  0.49575773     0.11700
H2700       H  0.63686117  0.24006314  0.49469355     0.13600
H2701       H  0.65048777  0.25105441  0.46727283     0.10100
H2702       H  0.64965451  0.24907858  0.43628140     0.12200
H2703       H  0.60728520  0.17616441  0.43849440     0.08900
H2704       H  0.60795230  0.17841631  0.46934112     0.11600
C2705       C  0.63476966  0.84486241  0.62692994    -0.03000
C2706       C  0.62822138  0.86092385  0.61228230    -0.05600
C2707       C  0.62814126  0.89632442  0.61095983    -0.20700
C2708       C  0.63428760  0.91664270  0.62433959     0.25000
C2709       C  0.64143775  0.90072662  0.63882564    -0.18200
C2710       C  0.64174270  0.86505717  0.64006133    -0.08200
C2711       C  0.63282711  0.95417543  0.62254517    -0.18500
C2712       C  0.63100617  0.97561449  0.63578324    -0.23300
C2713       C  0.62827693  0.01285584  0.63364791     0.27100
C2714       C  0.63381408  0.03487087  0.64661862    -0.20100
C2715       C  0.63197787  0.07010570  0.64488121    -0.09700
C2716       C  0.62427767  0.08412622  0.63021259    -0.10300
C2717       C  0.61801941  0.06204052  0.61752662    -0.03200
C2718       C  0.61999723  0.02674297  0.61920825    -0.18300
H2719       H  0.62292263  0.84608171  0.60185767     0.10800
H2720       H  0.62276042  0.90792216  0.59960242     0.10900
H2721       H  0.64678978  0.91564362  0.64917413     0.10500
H2722       H  0.64694050  0.85334198  0.65145816     0.11600
H2723       H  0.63230511  0.96418675  0.60969916     0.11700
H2724       H  0.63166149  0.96581804  0.64866414     0.13600
H2725       H  0.63997594  0.02481211  0.65796719     0.10100
H2726       H  0.63684200  0.08641526  0.65495138     0.12200
H2727       H  0.61199040  0.07205329  0.60610868     0.08900
H2728       H  0.61494051  0.01050564  0.60922359     0.11600
C2729       C  0.63452952  0.34534031  0.62000047    -0.03000
C2730       C  0.64245504  0.36426992  0.60697129    -0.05600
C2731       C  0.64228901  0.40000952  0.60753840    -0.20700
C2732       C  0.63419751  0.41739204  0.62108166     0.25000
C2733       C  0.62707702  0.39829343  0.63449412    -0.18200
C2734       C  0.62715483  0.36280732  0.63388778    -0.08200
C2735       C  0.63356985  0.45528927  0.62094837    -0.18500
C2736       C  0.62155925  0.47367761  0.62964597    -0.23300
C2737       C  0.62078261  0.51154877  0.62953986     0.27100
C2738       C  0.61241990  0.52863898  0.64301524    -0.20100
C2739       C  0.61179125  0.56434231  0.64352626    -0.09700
C2740       C  0.61945950  0.58359364  0.63047186    -0.10300
C2741       C  0.62724437  0.56637050  0.61670074    -0.03200
C2742       C  0.62784469  0.53087857  0.61618611    -0.18300
H2743       H  0.64833267  0.35153180  0.59617354     0.10800
H2744       H  0.64814396  0.41414337  0.59716566     0.10900
H2745       H  0.62149467  0.41047878  0.64556464     0.10500
H2746       H  0.62129935  0.34898453  0.64435980     0.11600
H2747       H  0.64323199  0.46819963  0.61314298     0.11700
H2748       H  0.61187595  0.46072066  0.63740548     0.13600
H2749       H  0.60664601  0.51430308  0.65336277     0.10100
H2750       H  0.60567439  0.57681952  0.65427259     0.12200
H2751       H  0.63304031  0.58036728  0.60625629     0.08900
H2752       H  0.63372109  0.51886831  0.60521233     0.11600
C2753       C  0.69435791  0.19054133  0.61788271    -0.03000
C2754       C  0.70451744  0.19799204  0.60345724    -0.05600
C2755       C  0.72157181  0.18491647  0.60190259    -0.20700
C2756       C  0.72871316  0.16394284  0.61463123     0.25000
C2757       C  0.71879466  0.15777947  0.62935110    -0.18200
C2758       C  0.70185043  0.17077987  0.63090770    -0.08200
C2759       C  0.74667056  0.14966234  0.61250322    -0.18500
C2760       C  0.75191863  0.12040356  0.62002140    -0.23300
C2761       C  0.77002331  0.10607261  0.61913224     0.27100
C2762       C  0.77455543  0.07935716  0.63021941    -0.20100
C2763       C  0.79160742  0.06605927  0.63050247    -0.09700
C2764       C  0.80453278  0.07913311  0.61961831    -0.10300
C2765       C  0.79984531  0.10507024  0.60812891    -0.03200
C2766       C  0.78284345  0.11832887  0.60784040    -0.18300
H2767       H  0.69915058  0.21315962  0.59320979     0.10800
H2768       H  0.72905995  0.19054424  0.59055384     0.10900
H2769       H  0.72407721  0.14311569  0.63979721     0.10500
H2770       H  0.69452062  0.16492022  0.64231967     0.11600
H2771       H  0.75554462  0.16379490  0.60441278     0.11700
H2772       H  0.74254319  0.10623336  0.62760309     0.13600
H2773       H  0.76494091  0.06915852  0.63897407     0.10100
H2774       H  0.79474339  0.04606525  0.63947550     0.12200
H2775       H  0.80941775  0.11558879  0.59943166     0.08900
H2776       H  0.77999236  0.13814349  0.59874381     0.11600
C2777       C  0.43743466  0.26290654  0.61540891    -0.03000
C2778       C  0.44330896  0.23060911  0.62067253    -0.05600
C2779       C  0.46095497  0.22156836  0.61919208    -0.20700
C2780       C  0.47322483  0.24472524  0.61269928     0.25000
C2781       C  0.46734673  0.27683773  0.60707730    -0.18200
C2782       C  0.44961006  0.28578527  0.60839177    -0.08200
C2783       C  0.49198750  0.23448265  0.61210615    -0.18500
C2784       C  0.50519676  0.25704487  0.61355083    -0.23300
C2785       C  0.52395290  0.24710299  0.61495555     0.27100
C2786       C  0.53543112  0.26941424  0.62331887    -0.20100
C2787       C  0.55317433  0.26147163  0.62501061    -0.09700
C2788       C  0.56000821  0.23112484  0.61814849    -0.10300
C2789       C  0.54856703  0.20879255  0.60960467    -0.03200
C2790       C  0.53068804  0.21665574  0.60803736    -0.18300
H2791       H  0.43424391  0.21217886  0.62592705     0.10800
H2792       H  0.46509722  0.19658669  0.62345577     0.10900
H2793       H  0.47635630  0.29497735  0.60152775     0.10500
H2794       H  0.44546338  0.31070215  0.60406128     0.11600
H2795       H  0.49489667  0.20740016  0.61208204     0.11700
H2796       H  0.50211615  0.28385519  0.61523443     0.13600
H2797       H  0.53062390  0.29308020  0.62868512     0.10100
H2798       H  0.56158717  0.27944834  0.63155915     0.12200
H2799       H  0.55344164  0.18538425  0.60404230     0.08900
H2800       H  0.52230480  0.19921685  0.60113270     0.11600
C2801       C  0.63286843  0.80674283  0.94705612    -0.03000
C2802       C  0.63892476  0.83652995  0.95510461    -0.05600
C2803       C  0.63921698  0.83888777  0.97285057    -0.20700
C2804       C  0.63379999  0.81135110  0.98292311     0.25000
C2805       C  0.62784380  0.78145816  0.97489191    -0.18200
C2806       C  0.62736157  0.77922712  0.95716130    -0.08200
C2807       C  0.63374585  0.81509484  0.00171164    -0.18500
C2808       C  0.63597472  0.78858851  0.01234671    -0.23300
C2809       C  0.63582186  0.79215303  0.03113186     0.27100
C2810       C  0.64569539  0.76932744  0.04094694    -0.20100
C2811       C  0.64557947  0.77141116  0.05868537    -0.09700
C2812       C  0.63530439  0.79604012  0.06702794    -0.10300
C2813       C  0.62522135  0.81864890  0.05718441    -0.03200
C2814       C  0.62550149  0.81679419  0.03942137    -0.18300
H2815       H  0.64318452  0.85823956  0.94769372     0.10800
H2816       H  0.64373247  0.86227413  0.97874023     0.10900
H2817       H  0.62312221  0.76006438  0.98224803     0.10500
H2818       H  0.62257464  0.75596187  0.95136670     0.11600
H2819       H  0.63262913  0.84068113  0.00688407     0.11700
H2820       H  0.63889953  0.76356452  0.00715964     0.13600
H2821       H  0.65361346  0.74992096  0.03485537     0.10100
H2822       H  0.65340737  0.75344875  0.06586446     0.12200
H2823       H  0.61706286  0.83775059  0.06320254     0.08900
H2824       H  0.61733864  0.83415984  0.03224232     0.11600
C2825       C  0.69580070  0.82770655  0.87721488    -0.03000
C2826       C  0.70822989  0.80768197  0.86860845    -0.05600
C2827       C  0.72553038  0.81911727  0.86682255    -0.20700
C2828       C  0.73062222  0.85101046  0.87328109     0.25000
C2829       C  0.71824894  0.87084790  0.88204568    -0.18200
C2830       C  0.70106715  0.85929705  0.88400999    -0.08200
C2831       C  0.74912252  0.86213626  0.87160486    -0.18500
C2832       C  0.75393898  0.89517040  0.87087013    -0.23300
C2833       C  0.77257310  0.90604124  0.87067030     0.27100
C2834       C  0.77736379  0.93659454  0.86261176    -0.20100
C2835       C  0.79486842  0.94758618  0.86266820    -0.09700
C2836       C  0.80779235  0.92849540  0.87111775    -0.10300
C2837       C  0.80284624  0.89822899  0.87940980    -0.03200
C2838       C  0.78549087  0.88714111  0.87918955    -0.18300
H2839       H  0.70459965  0.78321815  0.86327564     0.10800
H2840       H  0.73492707  0.80318029  0.86023012     0.10900
H2841       H  0.72187171  0.89502682  0.88768101     0.10500
H2842       H  0.69185584  0.87536401  0.89076228     0.11600
H2843       H  0.75904171  0.84237889  0.87058886     0.11700
H2844       H  0.74397248  0.91487429  0.87007730     0.13600
H2845       H  0.76756500  0.95181463  0.85615619     0.10100
H2846       H  0.79825238  0.97105488  0.85623116     0.12200
H2847       H  0.81242452  0.88289217  0.88609954     0.08900
H2848       H  0.78218215  0.86410089  0.88602231     0.11600
C2849       C  0.56283319  0.77688511  0.88507849    -0.03000
C2850       C  0.55674818  0.75359561  0.89732845    -0.05600
C2851       C  0.53895454  0.74541882  0.89841003    -0.20700
C2852       C  0.52679224  0.76004534  0.88722516     0.25000
C2853       C  0.53277584  0.78404652  0.87523029    -0.18200
C2854       C  0.55061332  0.79224556  0.87414001    -0.08200
C2855       C  0.50799350  0.75030886  0.88881386    -0.18500
C2856       C  0.49642626  0.75306647  0.87595759    -0.23300
C2857       C  0.47743132  0.74515328  0.87750634     0.27100
C2858       C  0.46588609  0.76118965  0.86621864    -0.20100
C2859       C  0.44790047  0.75520573  0.86710664    -0.09700
C2860       C  0.44091684  0.73258599  0.87920608    -0.10300
C2861       C  0.45247965  0.71582256  0.89033259    -0.03200
C2862       C  0.47059460  0.72206911  0.88951941    -0.18300
H2863       H  0.56576523  0.74132814  0.90602500     0.10800
H2864       H  0.53470579  0.72720294  0.90788831     0.10900
H2865       H  0.52376657  0.79695951  0.86680150     0.10500
H2866       H  0.55482845  0.81054453  0.86469904     0.11600
H2867       H  0.50368922  0.74034224  0.90097050     0.11700
H2868       H  0.50081549  0.76276599  0.86377985     0.13600
H2869       H  0.47078594  0.77884483  0.85676887     0.10100
H2870       H  0.43945396  0.76841789  0.85821816     0.12200
H2871       H  0.44753576  0.69802984  0.89967964     0.08900
H2872       H  0.47914890  0.70844463  0.89812135     0.11600
C2873       C  0.62881703  0.77835547  0.81517502    -0.03000
C2874       C  0.64298574  0.76026041  0.80810913    -0.05600
C2875       C  0.64338016  0.75225269  0.79082366    -0.20700
C2876       C  0.62957154  0.76167089  0.78003473     0.25000
C2877       C  0.61531887  0.77985926  0.78697616    -0.18200
C2878       C  0.61496938  0.78814748  0.80438404    -0.08200
C2879       C  0.63118311  0.75334057  0.76159007    -0.18500
C2880       C  0.61756238  0.75042417  0.75072312    -0.23300
C2881       C  0.61981777  0.74184280  0.73232893     0.27100
C2882       C  0.60592262  0.72649633  0.72339967    -0.20100
C2883       C  0.60744400  0.71904103  0.70600972    -0.09700
C2884       C  0.62282316  0.72732479  0.69705661    -0.10300
C2885       C  0.63672703  0.74266407  0.70600119    -0.03200
C2886       C  0.63526734  0.74982703  0.72337884    -0.18300
H2887       H  0.65390903  0.75223452  0.81594521     0.10800
H2888       H  0.65456937  0.73845363  0.78585822     0.10900
H2889       H  0.60461553  0.78828271  0.77898741     0.10500
H2890       H  0.60387574  0.80214822  0.80938403     0.11600
H2891       H  0.64428207  0.74765853  0.75701213     0.11700
H2892       H  0.60428392  0.75292192  0.75551956     0.13600
H2893       H  0.59382303  0.72030199  0.72990091     0.10100
H2894       H  0.59641864  0.70750898  0.69949431     0.12200
H2895       H  0.64872973  0.74955382  0.69951122     0.08900
H2896       H  0.64611088  0.76253807  0.72958921     0.11600
C2897       C  0.63409525  0.30253126  0.93479330    -0.03000
C2898       C  0.64902237  0.28923711  0.94295226    -0.05600
C2899       C  0.65061207  0.29071353  0.96065340    -0.20700
C2900       C  0.63720047  0.30489717  0.97058463     0.25000
C2901       C  0.62233521  0.31847603  0.96244607    -0.18200
C2902       C  0.62081746  0.31732812  0.94474934    -0.08200
C2903       C  0.63915527  0.30572957  0.98935398    -0.18500
C2904       C  0.62532005  0.30314079  0.99987728    -0.23300
C2905       C  0.62687709  0.30268885  0.01866722     0.27100
C2906       C  0.61409145  0.28532503  0.02807152    -0.20100
C2907       C  0.61479287  0.28478285  0.04579802    -0.09700
C2908       C  0.62813927  0.30220435  0.05455818    -0.10300
C2909       C  0.64084921  0.32002952  0.04516199    -0.03200
C2910       C  0.64028230  0.32015696  0.02736781    -0.18300
H2911       H  0.65956619  0.27794707  0.93565335     0.10800
H2912       H  0.66225326  0.28036484  0.96662794     0.10900
H2913       H  0.61198353  0.33050233  0.96969668     0.10500
H2914       H  0.60922877  0.32807778  0.93886970     0.11600
H2915       H  0.65234459  0.30622770  0.99456958     0.11700
H2916       H  0.61234645  0.29906791  0.99453434     0.13600
H2917       H  0.60355818  0.27193375  0.02166210     0.10100
H2918       H  0.60472756  0.27102366  0.05265304     0.12200
H2919       H  0.65125197  0.33380058  0.05155803     0.08900
H2920       H  0.65009771  0.33451390  0.02049893     0.11600
C2921       C  0.63719127  0.66714450  0.88406110    -0.03000
C2922       C  0.63053351  0.64916763  0.89807620    -0.05600
C2923       C  0.62925057  0.61369266  0.89764960    -0.20700
C2924       C  0.63423008  0.59548109  0.88309823     0.25000
C2925       C  0.64151908  0.61330095  0.86927977    -0.18200
C2926       C  0.64303573  0.64883337  0.86979857    -0.08200
C2927       C  0.63168376  0.55800889  0.88289648    -0.18500
C2928       C  0.62867623  0.54014530  0.86856590    -0.23300
C2929       C  0.62600951  0.50266443  0.86832963     0.27100
C2930       C  0.63008872  0.48465025  0.85345035    -0.20100
C2931       C  0.62863873  0.44918811  0.85291290    -0.09700
C2932       C  0.62281404  0.43097041  0.86720897    -0.10300
C2933       C  0.61791369  0.44912785  0.88186037    -0.03200
C2934       C  0.61947940  0.48462348  0.88243091    -0.18300
H2935       H  0.62602309  0.66260144  0.90928371     0.10800
H2936       H  0.62383177  0.60050161  0.90853643     0.10900
H2937       H  0.64605203  0.59995798  0.85807467     0.10500
H2938       H  0.64821313  0.66204759  0.85881533     0.11600
H2939       H  0.63176303  0.54509507  0.89508202     0.11700
H2940       H  0.62858459  0.55319852  0.85640872     0.13600
H2941       H  0.63489980  0.49798397  0.84234136     0.10100
H2942       H  0.63242589  0.43599349  0.84138987     0.12200
H2943       H  0.61330273  0.43585354  0.89305917     0.08900
H2944       H  0.61554890  0.49770597  0.89391627     0.11600
C2945       C  0.62137358  0.92875240  0.87512749    -0.03000
C2946       C  0.61151810  0.94477329  0.86233400    -0.05600
C2947       C  0.61172256  0.98039598  0.86073513    -0.20700
C2948       C  0.62189274  0.00064422  0.87175225     0.25000
C2949       C  0.63126790  0.98459954  0.88487044    -0.18200
C2950       C  0.63104873  0.94921399  0.88647984    -0.08200
C2951       C  0.62208131  0.03834152  0.86951154    -0.18500
C2952       C  0.63522022  0.05860118  0.87514719    -0.23300
C2953       C  0.63546074  0.09640581  0.87332366     0.27100
C2954       C  0.64663087  0.11569012  0.88385194    -0.20100
C2955       C  0.64697397  0.15135871  0.88282910    -0.09700
C2956       C  0.63615408  0.16847622  0.87118997    -0.10300
C2957       C  0.62539483  0.14908983  0.86030607    -0.03200
C2958       C  0.62509975  0.11357140  0.86128165    -0.18300
H2959       H  0.60387981  0.92981518  0.85343092     0.10800
H2960       H  0.60415502  0.99214809  0.85066703     0.10900
H2961       H  0.63866360  0.99915180  0.89409291     0.10500
H2962       H  0.63864798  0.93788322  0.89664139     0.11600
H2963       H  0.61101074  0.04937819  0.86285760     0.11700
H2964       H  0.64631851  0.04728687  0.88165907     0.13600
H2965       H  0.65490647  0.10313335  0.89312403     0.10100
H2966       H  0.65540219  0.16551714  0.89138306     0.12200
H2967       H  0.61706347  0.16140294  0.85100290     0.08900
H2968       H  0.61681968  0.09988854  0.85245318     0.11600
C2969       C  0.69454125  0.33470486  0.86745058    -0.03000
C2970       C  0.69834341  0.36482778  0.85846589    -0.05600
C2971       C  0.71465180  0.38071987  0.86003186    -0.20700
C2972       C  0.72775874  0.36678597  0.87039762     0.25000
C2973       C  0.72413726  0.33635646  0.87925879    -0.18200
C2974       C  0.70767323  0.32054545  0.87782171    -0.08200
C2975       C  0.74474800  0.38537801  0.87192459    -0.18500
C2976       C  0.75999405  0.37001741  0.87584586    -0.23300
C2977       C  0.77722693  0.38786651  0.87586833     0.27100
C2978       C  0.79223044  0.36873459  0.87211760    -0.20100
C2979       C  0.80873224  0.38401392  0.87185359    -0.09700
C2980       C  0.81079241  0.41881161  0.87570087    -0.10300
C2981       C  0.79585119  0.43804965  0.87986624    -0.03200
C2982       C  0.77915527  0.42276913  0.87981361    -0.18300
H2983       H  0.68852914  0.37677979  0.85049997     0.10800
H2984       H  0.71701583  0.40414076  0.85312624     0.10900
H2985       H  0.73375481  0.32521603  0.88769796     0.10500
H2986       H  0.70512063  0.29764490  0.88507278     0.11600
H2987       H  0.74487054  0.41216963  0.86848365     0.11700
H2988       H  0.76017482  0.34261896  0.87771090     0.13600
H2989       H  0.79116617  0.34183211  0.86917097     0.10100
H2990       H  0.81998886  0.36831663  0.86880395     0.12200
H2991       H  0.79705757  0.46484548  0.88295911     0.08900
H2992       H  0.76787459  0.43812093  0.88313293     0.11600
C2993       C  0.56128122  0.28644494  0.87249813    -0.03000
C2994       C  0.55028850  0.31103054  0.87993475    -0.05600
C2995       C  0.53203915  0.30689303  0.87960604    -0.20700
C2996       C  0.52446087  0.27790490  0.87210277     0.25000
C2997       C  0.53547143  0.25345004  0.86458380    -0.18200
C2998       C  0.55363311  0.25766903  0.86480635    -0.08200
C2999       C  0.50506813  0.27440928  0.87171322    -0.18500
C3000       C  0.49693136  0.24394388  0.87104615    -0.23300
C3001       C  0.47758879  0.24004603  0.87045820     0.27100
C3002       C  0.47005511  0.21003133  0.87680223    -0.20100
C3003       C  0.45188935  0.20537749  0.87646366    -0.09700
C3004       C  0.44088386  0.23045343  0.86947756    -0.10300
C3005       C  0.44846784  0.26013214  0.86270320    -0.03200
C3006       C  0.46662991  0.26493039  0.86320582    -0.18300
H3007       H  0.55576577  0.33362361  0.88581332     0.10800
H3008       H  0.52381457  0.32629351  0.88530504     0.10900
H3009       H  0.53012806  0.23135797  0.85816942     0.10500
H3010       H  0.56169390  0.23834077  0.85883997     0.11600
H3011       H  0.49732818  0.29754462  0.87273491     0.11700
H3012       H  0.50465159  0.22074769  0.87180299     0.13600
H3013       H  0.47824424  0.19029977  0.88225286     0.10100
H3014       H  0.44646862  0.18213984  0.88169548     0.12200
H3015       H  0.44035084  0.27987102  0.85717339     0.08900
H3016       H  0.47203389  0.28789343  0.85770049     0.11600
C3017       C  0.62945238  0.23388586  0.68662331    -0.03000
C3018       C  0.64431714  0.22454307  0.69610918    -0.05600
C3019       C  0.64562528  0.23325452  0.71330797    -0.20700
C3020       C  0.63201380  0.25096101  0.72143939     0.25000
C3021       C  0.61711513  0.26023486  0.71194824    -0.18200
C3022       C  0.61586282  0.25175833  0.69474673    -0.08200
C3023       C  0.63397780  0.26021961  0.73965180    -0.18500
C3024       C  0.62017911  0.26497418  0.75004089    -0.23300
C3025       C  0.62195966  0.27280680  0.76840172     0.27100
C3026       C  0.60853721  0.26249543  0.77940771    -0.20100
C3027       C  0.60976443  0.26872959  0.79682657    -0.09700
C3028       C  0.62430756  0.28608253  0.80359599    -0.10300
C3029       C  0.63751510  0.29745522  0.79253450    -0.03200
C3030       C  0.63640554  0.29074738  0.77508001    -0.18300
H3031       H  0.65509972  0.21110936  0.69016463     0.10800
H3032       H  0.65730095  0.22608905  0.72029860     0.10900
H3033       H  0.60658062  0.27479167  0.71760620     0.10500
H3034       H  0.60430230  0.25956343  0.68775575     0.11600
H3035       H  0.64717371  0.26117282  0.74483458     0.11700
H3036       H  0.60700734  0.26061036  0.74526371     0.13600
H3037       H  0.59718480  0.24901689  0.77454402     0.10100
H3038       H  0.59928347  0.25997020  0.80501214     0.12200
H3039       H  0.64882991  0.31101067  0.79740774     0.08900
H3040       H  0.64674385  0.29993214  0.76686527     0.11600
loop_ 
_geom_bond_atom_site_label_1 
_geom_bond_atom_site_label_2 
_geom_bond_distance 
_geom_bond_site_symmetry_2 
_ccdc_geom_bond_type 
Zn1           O5   1.936       .  S
Zn1           O6   1.998       .  S
Zn1          O10   1.993       .  S
Zn1          O17   1.987       .  S
Zn2           O5   1.951       .  S
Zn2           O7   2.005       .  S
Zn2           O9   2.028       .  S
Zn2          O13   1.997       .  S
Zn3           O5   1.965       .  S
Zn3           O8   2.040       .  S
Zn3          O11   2.023       .  S
Zn3          O14   2.020       .  S
Zn4           O5   1.975       .  S
Zn4          O12   2.022       .  S
Zn4          O15   2.055       .  S
Zn4          O16   2.057       .  S
O6           C18   1.271       .  A
O7           C19   1.273       .  A
O8           C20   1.276       .  A
O9           C18   1.274       .  A
O10          C20   1.271       .  A
O11          C19   1.275       .  A
O12          C21   1.275       .  A
O13          C22   1.272       .  A
O14          C21   1.275       .  A
O15          C22   1.278       .  A
O16          C23   1.279       .  A
O17          C23   1.271       .  A
C18        C3028   1.478       .  S
C19        C2932   1.480       .  S
C20        C2993   1.482       .  S
C21        C2897   1.483       .  S
C22        C2969   1.488       .  S
C23        C2956   1.484       .  S
Zn24         O28   1.949       .  S
Zn24         O29   1.996       .  S
Zn24         O33   2.016       .  S
Zn24         O40   1.996       .  S
Zn25         O28   1.985       .  S
Zn25         O30   2.062       .  S
Zn25         O32   2.048       .  S
Zn25         O36   2.062       .  S
Zn26         O28   1.945       .  S
Zn26         O31   2.019       .  S
Zn26         O34   1.982       .  S
Zn26         O37   1.993       .  S
Zn27         O28   1.964       .  S
Zn27         O35   2.038       .  S
Zn27         O38   2.005       .  S
Zn27         O39   2.030       .  S
O29          C41   1.272       .  A
O30          C42   1.279       .  A
O31          C43   1.273       .  A
O32          C41   1.278       .  A
O33          C43   1.272       .  A
O34          C42   1.271       .  A
O35          C44   1.276       .  A
O36          C45   1.279       .  A
O37          C44   1.271       .  A
O38          C45   1.273       .  A
O39          C46   1.275       .  A
O40          C46   1.271       .  A
C41        C2849   1.484       .  S
C42        C2945   1.486       .  S
C43        C2801   1.483       .  S
C44        C2825   1.482       .  S
C45        C2873   1.491       .  S
C46        C2921   1.477       .  S
Zn47         O51   1.944       .  S
Zn47         O52   2.017       .  S
Zn47         O56   1.990       .  S
Zn47         O63   1.994       .  S
Zn48         O51   1.936       .  S
Zn48         O53   1.979       .  S
Zn48         O55   2.007       .  S
Zn48         O59   1.995       .  S
Zn49         O51   1.976       .  S
Zn49         O54   2.050       .  S
Zn49         O57   2.056       .  S
Zn49         O60   2.025       .  S
Zn50         O51   1.970       .  S
Zn50         O58   2.026       .  S
Zn50         O61   2.048       .  S
Zn50         O62   2.041       .  S
O52          C64   1.272       .  A
O53          C65   1.270       .  A
O54          C66   1.277       .  A
O55          C64   1.272       .  A
O56          C66   1.271       .  A
O57          C65   1.278       .  A
O58          C67   1.276       .  A
O59          C68   1.272       .  A
O60          C67   1.276       .  A
O61          C68   1.277       .  A
O62          C69   1.277       .  A
O63          C69   1.272       .  A
C64        C3017   1.480       .  S
C65        C2729   1.481       .  S
C66        C2753   1.485       .  S
C67        C2681   1.485       .  S
C68        C2788   1.485       .  S
C69        C2716   1.481       .  S
Zn70         O74   1.950       .  S
Zn70         O75   1.990       .  S
Zn70         O79   2.003       .  S
Zn70         O86   2.021       .  S
Zn71         O74   1.978       .  S
Zn71         O76   2.026       .  S
Zn71         O78   2.050       .  S
Zn71         O82   2.062       .  S
Zn72         O74   1.981       .  S
Zn72         O77   2.051       .  S
Zn72         O80   2.048       .  S
Zn72         O83   2.061       .  S
Zn73         O74   1.940       .  S
Zn73         O81   1.975       .  S
Zn73         O84   1.985       .  S
Zn73         O85   2.007       .  S
O75          C87   1.272       .  A
O76          C88   1.276       .  A
O77          C89   1.278       .  A
O78          C87   1.278       .  A
O79          C89   1.273       .  A
O80          C88   1.278       .  A
O81          C90   1.270       .  A
O82          C91   1.278       .  A
O83          C90   1.279       .  A
O84          C91   1.270       .  A
O85          C92   1.271       .  A
O86          C92   1.272       .  A
C87        C2705   1.480       .  S
C88        C2884   1.490       .  S
C89        C2657   1.486       .  S
C90        C2740   1.483       .  S
C91        C2633   1.487       .  S
C92        C2609   1.482       .  S
Zn93         O97   1.986       .  S
Zn93         O98   2.040       .  S
Zn93        O102   2.067       .  S
Zn93        O109   2.052       .  S
Zn94         O97   1.950       .  S
Zn94         O99   2.004       .  S
Zn94        O101   1.992       .  S
Zn94        O105   2.011       .  S
Zn95         O97   1.942       .  S
Zn95        O100   1.981       .  S
Zn95        O103   2.011       .  S
Zn95        O106   2.027       .  S
Zn96         O97   1.941       .  S
Zn96        O104   2.021       .  S
Zn96        O107   2.017       .  S
Zn96        O108   1.987       .  S
O98         C110   1.276       .  A
O99         C111   1.272       .  A
O100        C112   1.271       .  A
O101        C110   1.271       .  A
O102        C112   1.279       .  A
O103        C111   1.274       .  A
O104        C113   1.274       .  A
O105        C114   1.273       .  A
O106        C113   1.275       .  A
O107        C114   1.273       .  A
O108        C115   1.273       .  A
O109        C115   1.278       .  A
C110       C2489   1.482       .  S
C111       C2524   1.479       .  S
C112       C2561   1.484       .  S
C113       C2585   1.485       .  S
C114       C3004   1.481       .  S
C115       C2537   1.483       .  S
Zn116       O120   1.930       .  S
Zn116       O121   1.995       .  S
Zn116       O125   1.982       .  S
Zn116       O132   1.975       .  S
Zn117       O120   1.941       .  S
Zn117       O122   1.989       .  S
Zn117       O124   2.024       .  S
Zn117       O128   1.985       .  S
Zn118       O120   1.972       .  S
Zn118       O123   2.059       .  S
Zn118       O126   2.045       .  S
Zn118       O129   2.028       .  S
Zn119       O120   1.977       .  S
Zn119       O127   2.025       .  S
Zn119       O130   2.056       .  S
Zn119       O131   2.050       .  S
O121        C133   1.269       .  A
O122        C134   1.272       .  A
O123        C135   1.278       .  A
O124        C133   1.272       .  A
O125        C135   1.270       .  A
O126        C134   1.277       .  A
O127        C136   1.276       .  A
O128        C137   1.270       .  A
O129        C136   1.277       .  A
O130        C137   1.277       .  A
O131        C138   1.277       .  A
O132        C138   1.270       .  A
C133       C2476   1.475       .  S
C134       C2548   1.479       .  S
C135       C2860   1.485       .  S
C136       C2417   1.486       .  S
C137       C2441   1.482       .  S
C138       C2513   1.474       .  S
Zn139       O143   1.939       .  S
Zn139       O144   2.011       .  S
Zn139       O148   2.000       .  S
Zn139       O155   1.983       .  S
Zn140       O143   1.952       .  S
Zn140       O145   2.008       .  S
Zn140       O147   2.042       .  S
Zn140       O151   2.005       .  S
Zn141       O143   1.967       .  S
Zn141       O146   2.039       .  S
Zn141       O149   2.028       .  S
Zn141       O152   2.013       .  S
Zn142       O143   1.985       .  S
Zn142       O150   2.033       .  S
Zn142       O153   2.060       .  S
Zn142       O154   2.059       .  S
O144        C156   1.272       .  A
O145        C157   1.273       .  A
O146        C158   1.276       .  A
O147        C156   1.276       .  A
O148        C158   1.272       .  A
O149        C157   1.275       .  A
O150        C159   1.276       .  A
O151        C160   1.274       .  A
O152        C159   1.274       .  A
O153        C160   1.279       .  A
O154        C161   1.278       .  A
O155        C161   1.271       .  A
C156       C2596   1.484       .  S
C157       C2345   1.479       .  S
C158       C2777   1.483       .  S
C159       C2321   1.485       .  S
C160       C2404   1.486       .  S
C161       C2380   1.479       .  S
Zn162       O166   1.977       .  S
Zn162       O167   2.016       .  S
Zn162       O171   2.046       .  S
Zn162       O178   2.051       .  S
Zn163       O166   1.974       .  S
Zn163       O168   2.039       .  S
Zn163       O170   2.025       .  S
Zn163       O174   2.058       .  S
Zn164       O166   1.955       .  S
Zn164       O169   2.001       .  S
Zn164       O172   2.005       .  S
Zn164       O175   2.030       .  S
Zn165       O166   1.934       .  S
Zn165       O173   1.998       .  S
Zn165       O176   1.994       .  S
Zn165       O177   1.983       .  S
O167        C179   1.274       .  A
O168        C180   1.277       .  A
O169        C181   1.272       .  A
O170        C179   1.275       .  A
O171        C181   1.277       .  A
O172        C180   1.274       .  A
O173        C182   1.271       .  A
O174        C183   1.278       .  A
O175        C182   1.274       .  A
O176        C183   1.271       .  A
O177        C184   1.271       .  A
O178        C184   1.277       .  A
C179       C2273   1.483       .  S
C180       C2369   1.484       .  S
C181       C2308   1.486       .  S
C182       C2465   1.482       .  S
C183       C2668   1.487       .  S
C184       C2356   1.484       .  S
Zn185       O189   1.945       .  S
Zn185       O190   1.996       .  S
Zn185       O194   2.012       .  S
Zn185       O201   1.987   1_545  S
Zn186       O189   1.982       .  S
Zn186       O191   2.061       .  S
Zn186       O193   2.056       .  S
Zn186       O197   2.051       .  S
Zn187       O189   1.945       .  S
Zn187       O192   2.011       .  S
Zn187       O195   1.984       .  S
Zn187       O198   1.992       .  S
Zn188       O189   1.973       .  S
Zn188       O196   2.052       .  S
Zn188       O199   2.016       .  S
Zn188       O200   2.040   1_545  S
O190        C202   1.272       .  A
O191        C203   1.280       .  A
O192        C204   1.272       .  A
O193        C202   1.278       .  A
O194        C204   1.272       .  A
O195        C203   1.271       .  A
O196        C205   1.278       .  A
O197        C206   1.278       .  A
O198        C205   1.271       .  A
O199        C206   1.275       .  A
O200        C207   1.276       .  A
O201        C207   1.271       .  A
C202       C2225   1.486       .  S
C203       C2212   1.485       .  S
C204       C2153   1.481       .  S
C205       C2764   1.486       .  S
C206       C2249   1.489       .  S
C207       C2188   1.478       .  S
Zn208       O212   1.935       .  S
Zn208       O213   1.988       .  S
Zn208       O217   1.993       .  S
Zn208       O224   1.982       .  S
Zn209       O212   1.964       .  S
Zn209       O214   2.008       .  S
Zn209       O216   2.034       .  S
Zn209       O220   2.010       .  S
Zn210       O212   1.971       .  S
Zn210       O215   2.053       .  S
Zn210       O218   2.028       .  S
Zn210       O221   2.034       .  S
Zn211       O212   1.975       .  S
Zn211       O219   2.027       .  S
Zn211       O222   2.045       .  S
Zn211       O223   2.060       .  S
O213        C225   1.270       .  A
O214        C226   1.274       .  A
O215        C227   1.277       .  A
O216        C225   1.274       .  A
O217        C227   1.271       .  A
O218        C226   1.276       .  A
O219        C228   1.276       .  A
O220        C229   1.273       .  A
O221        C228   1.277       .  A
O222        C229   1.277       .  A
O223        C230   1.278       .  A
O224        C230   1.270       .  A
C225       C2140   1.478       .  S
C226       C2177   1.482       .  S
C227       C2105   1.485       .  S
C228       C2081   1.487       .  S
C229       C2644   1.488       .  S
C230       C2201   1.484       .  S
Zn231       O235   1.938       .  S
Zn231       O236   2.006       .  S
Zn231       O240   1.978       .  S
Zn231       O247   2.000       .  S
Zn232       O235   1.964       .  S
Zn232       O237   2.028       .  S
Zn232       O239   2.047       .  S
Zn232       O243   2.045       .  S
Zn233       O235   1.984       .  S
Zn233       O238   2.063       .  S
Zn233       O241   2.034       .  S
Zn233       O244   2.068       .  S
Zn234       O235   1.941       .  S
Zn234       O242   1.984       .  S
Zn234       O245   1.994       .  S
Zn234       O246   2.014       .  S
O236        C248   1.272       .  A
O237        C249   1.277       .  A
O238        C250   1.279       .  A
O239        C248   1.277       .  A
O240        C250   1.270       .  A
O241        C249   1.278       .  A
O242        C251   1.270       .  A
O243        C252   1.278       .  A
O244        C251   1.278       .  A
O245        C252   1.272       .  A
O246        C253   1.272       .  A
O247        C253   1.271       .  A
C248       C2057   1.486       .  S
C249       C1985   1.486       .  S
C250       C2009   1.479       .  S
C251       C2980   1.484       .  S
C252       C2044   1.484       .  S
C253       C2129   1.477       .  S
Zn254       O258   1.934       .  S
Zn254       O259   2.009       .  S
Zn254       O263   1.975       .  S
Zn254       O270   1.984       .  S
Zn255       O258   1.947       .  S
Zn255       O260   1.988       .  S
Zn255       O262   2.023       .  S
Zn255       O266   1.995   1_565  S
Zn256       O258   1.986       .  S
Zn256       O261   2.069       .  S
Zn256       O264   2.052       .  S
Zn256       O267   2.051       .  S
Zn257       O258   1.971       .  S
Zn257       O265   2.015       .  S
Zn257       O268   2.039   1_565  S
Zn257       O269   2.049       .  S
O259        C271   1.271       .  A
O260        C272   1.272       .  A
O261        C273   1.279       .  A
O262        C271   1.272       .  A
O263        C273   1.270       .  A
O264        C272   1.278       .  A
O265        C274   1.275       .  A
O266        C275   1.272       .  A
O267        C274   1.278       .  A
O268        C275   1.276       .  A
O269        C276   1.277       .  A
O270        C276   1.270       .  A
C271       C1937   1.484       .  S
C272       C1972   1.483       .  S
C273       C2020   1.482       .  S
C274       C2260   1.490       .  S
C275       C2033   1.481       .  S
C276       C2836   1.482       .  S
Zn277       O281   1.973       .  S
Zn277       O282   2.043       .  S
Zn277       O286   2.036       .  S
Zn277       O293   2.030       .  S
Zn278       O281   1.932       .  S
Zn278       O283   1.998       .  S
Zn278       O285   1.991       .  S
Zn278       O289   1.981   1_545  S
Zn279       O281   1.952       .  S
Zn279       O284   1.999       .  S
Zn279       O287   2.039       .  S
Zn279       O290   1.992       .  S
Zn280       O281   1.976       .  S
Zn280       O288   2.052       .  S
Zn280       O291   2.058   1_545  S
Zn280       O292   2.019       .  S
O282        C294   1.277       .  A
O283        C295   1.270       .  A
O284        C296   1.273       .  A
O285        C294   1.272       .  A
O286        C296   1.276       .  A
O287        C295   1.275       .  A
O288        C297   1.278       .  A
O289        C298   1.270       .  A
O290        C297   1.272       .  A
O291        C298   1.278       .  A
O292        C299   1.275       .  A
O293        C299   1.276       .  A
C294       C1961   1.483       .  S
C295       C1924   1.486       .  S
C296       C1900   1.483       .  S
C297       C2572   1.486       .  S
C298       C1865   1.476       .  S
C299       C1841   1.485       .  S
Zn300       O304   1.940       .  S
Zn300       O305   2.009       .  S
Zn300       O309   2.018       .  S
Zn300       O316   1.982       .  S
Zn301       O304   1.954       .  S
Zn301       O306   2.015       .  S
Zn301       O308   2.039       .  S
Zn301       O312   1.994       .  S
Zn302       O304   1.957       .  S
Zn302       O307   2.032       .  S
Zn302       O310   2.021       .  S
Zn302       O313   2.008       .  S
Zn303       O304   1.986       .  S
Zn303       O311   2.036       .  S
Zn303       O314   2.056       .  S
Zn303       O315   2.055       .  S
O305        C317   1.273       .  A
O306        C318   1.274       .  A
O307        C319   1.275       .  A
O308        C317   1.276       .  A
O309        C319   1.274       .  A
O310        C318   1.275       .  A
O311        C320   1.276       .  A
O312        C321   1.272       .  A
O313        C320   1.273       .  A
O314        C321   1.278       .  A
O315        C322   1.278       .  A
O316        C322   1.271       .  A
C317       C1817   1.486       .  S
C318       C1876   1.484       .  S
C319       C2068   1.485       .  S
C320       C1804   1.485       .  S
C321       C2452   1.486       .  S
C322       C1889   1.474       .  S
Zn323       O327   1.940       .  S
Zn323       O328   2.008       .  S
Zn323       O332   1.991       .  S
Zn323       O339   2.005       .  S
Zn324       O327   1.964       .  S
Zn324       O329   2.019       .  S
Zn324       O331   2.043       .  S
Zn324       O335   2.031       .  S
Zn325       O327   1.978       .  S
Zn325       O330   2.050       .  S
Zn325       O333   2.030       .  S
Zn325       O336   2.056       .  S
Zn326       O327   1.955       .  S
Zn326       O334   2.007       .  S
Zn326       O337   2.012       .  S
Zn326       O338   2.039       .  S
O328        C340   1.273       .  A
O329        C341   1.275       .  A
O330        C342   1.278       .  A
O331        C340   1.276       .  A
O332        C342   1.272       .  A
O333        C341   1.276       .  A
O334        C343   1.273       .  A
O335        C344   1.276       .  A
O336        C343   1.278       .  A
O337        C344   1.274       .  A
O338        C345   1.276       .  A
O339        C345   1.272       .  A
C340       C2116   1.487       .  S
C341       C1721   1.486       .  S
C342       C1756   1.482       .  S
C343       C2393   1.490       .  S
C344       C1780   1.484       .  S
C345       C1828   1.481       .  S
Zn346       O350   1.947       .  S
Zn346       O351   1.986       .  S
Zn346       O355   2.002       .  S
Zn346       O362   2.012       .  S
Zn347       O350   1.981       .  S
Zn347       O352   2.036       .  S
Zn347       O354   2.055       .  S
Zn347       O358   2.056       .  S
Zn348       O350   1.970       .  S
Zn348       O353   2.047       .  S
Zn348       O356   2.014       .  S
Zn348       O359   2.038   1_565  S
Zn349       O350   1.948       .  S
Zn349       O357   1.996   1_565  S
Zn349       O360   2.000       .  S
Zn349       O361   2.020       .  S
O351        C363   1.271       .  A
O352        C364   1.277       .  A
O353        C365   1.277       .  A
O354        C363   1.279       .  A
O355        C365   1.272       .  A
O356        C364   1.274       .  A
O357        C366   1.272       .  A
O358        C367   1.278       .  A
O359        C366   1.276       .  A
O360        C367   1.273       .  A
O361        C368   1.273       .  A
O362        C368   1.273       .  A
C363       C1745   1.485       .  S
C364       C1913   1.485       .  S
C365       C2297   1.487       .  S
C366       C1769   1.481       .  S
C367       C2236   1.487       .  S
C368       C1708   1.482       .  S
Zn369       O373   1.969       .  S
Zn369       O374   2.033       .  S
Zn369       O378   2.006       .  S
Zn369       O385   2.044       .  S
Zn370       O373   1.952       .  S
Zn370       O375   1.995       .  S
Zn370       O377   2.005       .  S
Zn370       O381   2.024       .  S
Zn371       O373   1.983       .  S
Zn371       O376   2.036       .  S
Zn371       O379   2.057       .  S
Zn371       O382   2.056       .  S
Zn372       O373   1.940       .  S
Zn372       O380   1.988       .  S
Zn372       O383   2.004       .  S
Zn372       O384   2.001       .  S
O374        C386   1.275       .  A
O375        C387   1.272       .  A
O376        C388   1.277       .  A
O377        C386   1.272       .  A
O378        C388   1.274       .  A
O379        C387   1.278       .  A
O380        C389   1.271       .  A
O381        C390   1.274       .  A
O382        C389   1.278       .  A
O383        C390   1.272       .  A
O384        C391   1.272       .  A
O385        C391   1.276       .  A
C386       C1601   1.484       .  S
C387       C1649   1.483       .  S
C388       C1673   1.484       .  S
C389       C1588   1.481       .  S
C390       C2500   1.480       .  S
C391       C1625   1.485       .  S
Zn392       O396   1.945       .  S
Zn392       O397   2.007       .  S
Zn392       O401   1.984       .  S
Zn392       O408   2.014       .  S
Zn393       O396   1.954       .  S
Zn393       O398   2.002       .  S
Zn393       O400   2.037       .  S
Zn393       O404   2.016       .  S
Zn394       O396   1.984       .  S
Zn394       O399   2.056       .  S
Zn394       O402   2.060       .  S
Zn394       O405   2.029       .  S
Zn395       O396   1.963       .  S
Zn395       O403   2.022       .  S
Zn395       O406   2.031       .  S
Zn395       O407   2.034       .  S
O397        C409   1.272       .  A
O398        C410   1.273       .  A
O399        C411   1.278       .  A
O400        C409   1.276       .  A
O401        C411   1.271       .  A
O402        C410   1.279       .  A
O403        C412   1.275       .  A
O404        C413   1.274       .  A
O405        C412   1.276       .  A
O406        C413   1.276       .  A
O407        C414   1.276       .  A
O408        C414   1.273       .  A
C409       C1564   1.486       .  S
C410       C1505   1.489       .  S
C411       C1577   1.478       .  S
C412       C2428   1.486       .  S
C413       C1612   1.486       .  S
C414       C1529   1.485       .  S
Zn415       O419   1.943       .  S
Zn415       O420   2.007       .  S
Zn415       O424   2.010       .  S
Zn415       O431   1.997       .  S
Zn416       O419   1.965       .  S
Zn416       O421   2.039       .  S
Zn416       O423   2.038       .  S
Zn416       O427   2.030       .  S
Zn417       O419   1.950       .  S
Zn417       O422   2.030       .  S
Zn417       O425   2.004       .  S
Zn417       O428   2.004       .  S
Zn418       O419   1.971       .  S
Zn418       O426   2.046       .  S
Zn418       O429   2.018       .  S
Zn418       O430   2.045       .  S
O420        C432   1.273       .  A
O421        C433   1.277       .  A
O422        C434   1.275       .  A
O423        C432   1.276       .  A
O424        C434   1.273       .  A
O425        C433   1.273       .  A
O426        C435   1.277       .  A
O427        C436   1.276       .  A
O428        C435   1.272       .  A
O429        C436   1.274       .  A
O430        C437   1.277       .  A
O431        C437   1.272       .  A
C432       C1492   1.483       .  S
C433       C1409   1.485       .  S
C434       C1684   1.484       .  S
C435       C1457   1.482       .  S
C436       C2332   1.485       .  S
C437       C1433   1.482       .  S
Zn438       O442   1.946       .  S
Zn438       O443   1.994       .  S
Zn438       O447   1.998       .  S
Zn438       O454   2.029       .  S
Zn439       O442   1.979       .  S
Zn439       O444   2.018       .  S
Zn439       O446   2.063       .  S
Zn439       O450   2.048       .  S
Zn440       O442   1.975       .  S
Zn440       O445   2.045       .  S
Zn440       O448   2.037       .  S
Zn440       O451   2.048       .  S
Zn441       O442   1.944       .  S
Zn441       O449   2.000       .  S
Zn441       O452   1.991       .  S
Zn441       O453   2.008       .  S
O443        C455   1.272       .  A
O444        C456   1.275       .  A
O445        C457   1.277       .  A
O446        C455   1.279       .  A
O447        C457   1.272       .  A
O448        C456   1.277       .  A
O449        C458   1.272       .  A
O450        C459   1.278       .  A
O451        C458   1.277       .  A
O452        C459   1.272       .  A
O453        C460   1.272       .  A
O454        C460   1.274       .  A
C455       C1372   1.487       .  S
C456       C1553   1.486       .  S
C457       C1444   1.485       .  S
C458       C1385   1.486       .  S
C459       C1420   1.481       .  S
C460       C2284   1.482       .  S
Zn461       O465   1.968       .  S
Zn461       O466   2.013       .  S
Zn461       O470   2.054       .  S
Zn461       O477   2.041       .  S
Zn462       O465   1.983       .  S
Zn462       O467   2.059       .  S
Zn462       O469   2.042       .  S
Zn462       O473   2.051       .  S
Zn463       O465   1.945       .  S
Zn463       O468   2.003       .  S
Zn463       O471   1.988       .  S
Zn463       O474   2.024       .  S
Zn464       O465   1.944       .  S
Zn464       O472   2.009       .  S
Zn464       O475   1.994       .  S
Zn464       O476   1.998       .  S
O466        C478   1.275       .  A
O467        C479   1.279       .  A
O468        C480   1.272       .  A
O469        C478   1.277       .  A
O470        C480   1.278       .  A
O471        C479   1.272       .  A
O472        C481   1.272       .  A
O473        C482   1.277       .  A
O474        C481   1.273       .  A
O475        C482   1.272       .  A
O476        C483   1.272       .  A
O477        C483   1.276       .  A
C478       C1348   1.487       .  S
C479       C1276   1.481       .  S
C480       C1313   1.486       .  S
C481       C2908   1.481       .  S
C482       C1660   1.486       .  S
C483       C1289   1.482       .  S
Zn484       O488   1.952       .  S
Zn484       O489   2.019       .  S
Zn484       O493   2.009       .  S
Zn484       O500   1.992       .  S
Zn485       O488   1.936       .  S
Zn485       O490   1.993       .  S
Zn485       O492   1.990       .  S
Zn485       O496   1.977       .  S
Zn486       O488   1.969       .  S
Zn486       O491   2.031       .  S
Zn486       O494   2.049       .  S
Zn486       O497   2.026       .  S
Zn487       O488   1.979       .  S
Zn487       O495   2.022       .  S
Zn487       O498   2.062       .  S
Zn487       O499   2.063       .  S
O489        C501   1.272       .  A
O490        C502   1.271       .  A
O491        C503   1.276       .  A
O492        C501   1.270       .  A
O493        C503   1.274       .  A
O494        C502   1.276       .  A
O495        C504   1.276       .  A
O496        C505   1.269       .  A
O497        C504   1.276       .  A
O498        C505   1.278       .  A
O499        C506   1.279       .  A
O500        C506   1.271       .  A
C501       C1241   1.476       .  S
C502       C1540   1.484       .  S
C503       C1300   1.484       .  S
C504       C2812   1.484       .  S
C505       C1265   1.478       .  S
C506       C1228   1.484       .  S
Zn507       O511   1.939       .  S
Zn507       O512   2.004       .  S
Zn507       O516   2.002       .  S
Zn507       O523   1.980       .  S
Zn508       O511   1.963       .  S
Zn508       O513   2.021       .  S
Zn508       O515   2.036       .  S
Zn508       O519   2.018       .  S
Zn509       O511   1.959       .  S
Zn509       O514   2.041       .  S
Zn509       O517   2.016       .  S
Zn509       O520   2.003       .  S
Zn510       O511   1.977       .  S
Zn510       O518   2.044       .  S
Zn510       O521   2.029       .  S
Zn510       O522   2.047       .  S
O512        C524   1.273       .  A
O513        C525   1.275       .  A
O514        C526   1.275       .  A
O515        C524   1.276       .  A
O516        C526   1.271       .  A
O517        C525   1.275       .  A
O518        C527   1.278       .  A
O519        C528   1.274       .  A
O520        C527   1.273       .  A
O521        C528   1.276       .  A
O522        C529   1.276       .  A
O523        C529   1.270       .  A
C524       C1481   1.484       .  S
C525       C1156   1.481       .  S
C526       C1337   1.487       .  S
C527       C1204   1.485       .  S
C528       C2692   1.485       .  S
C529       C1180   1.472       .  S
Zn530       O534   1.981       .  S
Zn530       O535   2.027       .  S
Zn530       O539   2.059       .  S
Zn530       O546   2.054       .  S
Zn531       O534   1.975       .  S
Zn531       O536   2.060       .  S
Zn531       O538   2.017       .  S
Zn531       O542   2.038       .  S
Zn532       O534   1.927       .  S
Zn532       O537   1.972       .  S
Zn532       O540   1.980       .  S
Zn532       O543   1.985       .  S
Zn533       O534   1.955       .  S
Zn533       O541   2.028       .  S
Zn533       O544   2.001       .  S
Zn533       O545   2.002       .  S
O535        C547   1.276       .  A
O536        C548   1.277       .  A
O537        C549   1.269       .  A
O538        C547   1.276       .  A
O539        C549   1.278       .  A
O540        C548   1.269       .  A
O541        C550   1.274       .  A
O542        C551   1.277       .  A
O543        C550   1.269       .  A
O544        C551   1.274       .  A
O545        C552   1.272       .  A
O546        C552   1.278       .  A
C547       C2620   1.483       .  S
C548       C1396   1.487       .  S
C549       C1145   1.484       .  S
C550       C1252   1.476       .  S
C551       C1169   1.484       .  S
C552       C1121   1.488       .  S
Zn553       O557   1.936       .  S
Zn553       O558   1.984       .  S
Zn553       O562   1.981       .  S
Zn553       O569   1.993       .  S
Zn554       O557   1.973       .  S
Zn554       O559   2.010       .  S
Zn554       O561   2.055       .  S
Zn554       O565   2.046   1_545  S
Zn555       O557   1.973       .  S
Zn555       O560   2.037       .  S
Zn555       O563   2.025       .  S
Zn555       O566   2.021       .  S
Zn556       O557   1.953       .  S
Zn556       O564   2.017       .  S
Zn556       O567   1.997   1_545  S
Zn556       O568   2.032       .  S
O558        C570   1.270       .  A
O559        C571   1.274       .  A
O560        C572   1.275       .  A
O561        C570   1.277       .  A
O562        C572   1.270       .  A
O563        C571   1.275       .  A
O564        C573   1.274       .  A
O565        C574   1.277       .  A
O566        C573   1.274       .  A
O567        C574   1.273       .  A
O568        C575   1.274       .  A
O569        C575   1.270       .  A
C570       C1193   1.481       .  S
C571       C1097   1.480       .  S
C572       C1049   1.478       .  S
C573       C1084   1.482       .  S
C574       C1025   1.481       .  S
C575       C2164   1.482       .  S
Zn576       O580   1.971       .  S
Zn576       O581   2.048       .  S
Zn576       O585   2.024       .  S
Zn576       O592   2.026       .  S
Zn577       O580   1.948       .  S
Zn577       O582   2.034       .  S
Zn577       O584   2.001       .  S
Zn577       O588   1.995       .  S
Zn578       O580   1.946       .  S
Zn578       O583   1.995       .  S
Zn578       O586   2.023       .  S
Zn578       O589   1.996       .  S
Zn579       O580   1.980       .  S
Zn579       O587   2.056       .  S
Zn579       O590   2.052       .  S
Zn579       O591   2.046       .  S
O581        C593   1.277       .  A
O582        C594   1.274       .  A
O583        C595   1.273       .  A
O584        C593   1.272       .  A
O585        C595   1.275       .  A
O586        C594   1.274       .  A
O587        C596   1.278       .  A
O588        C597   1.274       .  A
O589        C596   1.272       .  A
O590        C597   1.279       .  A
O591        C598   1.277       .  A
O592        C598   1.275       .  A
C593       C1132   1.487       .  S
C594       C2092   1.487       .  S
C595       C1060   1.477       .  S
C596        C977   1.487       .  S
C597       C1036   1.485       .  S
C598       C1001   1.492       .  S
Zn599       O603   1.936       .  S
Zn599       O604   1.982       .  S
Zn599       O608   2.013       .  S
Zn599       O615   1.984       .  S
Zn600       O603   1.970       .  S
Zn600       O605   2.058       .  S
Zn600       O607   2.042       .  S
Zn600       O611   2.022       .  S
Zn601       O603   1.943       .  S
Zn601       O606   2.034       .  S
Zn601       O609   2.000       .  S
Zn601       O612   1.983       .  S
Zn602       O603   1.986       .  S
Zn602       O610   2.051       .  S
Zn602       O613   2.054       .  S
Zn602       O614   2.058       .  S
O604        C616   1.271       .  A
O605        C617   1.279       .  A
O606        C618   1.274       .  A
O607        C616   1.277       .  A
O608        C618   1.272       .  A
O609        C617   1.272       .  A
O610        C619   1.279       .  A
O611        C620   1.276       .  A
O612        C619   1.273       .  A
O613        C620   1.278       .  A
O614        C621   1.278       .  A
O615        C621   1.270       .  A
C616        C916   1.479       .  S
C617       C1324   1.489       .  S
C618       C1996   1.485       .  S
C619        C929   1.481       .  S
C620       C1012   1.491       .  S
C621        C953   1.484       .  S
Zn622       O626   1.941       .  S
Zn622       O627   2.017       .  S
Zn622       O631   1.991       .  S
Zn622       O638   1.987       .  S
Zn623       O626   1.944       .  S
Zn623       O628   1.988   1_565  S
Zn623       O630   2.025       .  S
Zn623       O634   2.005       .  S
Zn624       O626   1.974       .  S
Zn624       O629   2.058       .  S
Zn624       O632   2.044   1_565  S
Zn624       O635   2.016       .  S
Zn625       O626   1.972       .  S
Zn625       O633   2.022       .  S
Zn625       O636   2.038       .  S
Zn625       O637   2.036       .  S
O627        C639   1.273       .  A
O628        C640   1.272       .  A
O629        C641   1.278       .  A
O630        C639   1.273       .  A
O631        C641   1.271       .  A
O632        C640   1.277       .  A
O633        C642   1.274       .  A
O634        C643   1.273       .  A
O635        C642   1.274       .  A
O636        C643   1.276       .  A
O637        C644   1.276       .  A
O638        C644   1.272       .  A
C639       C1948   1.486       .  S
C640        C940   1.478       .  S
C641       C1217   1.485       .  S
C642       C1108   1.483       .  S
C643        C881   1.485       .  S
C644        C905   1.480       .  S
Zn645       O649   1.948       .  S
Zn645       O650   2.024       .  S
Zn645       O654   2.005       .  S
Zn645       O661   1.997   1_545  S
Zn646       O649   1.941       .  S
Zn646       O651   1.989       .  S
Zn646       O653   2.013       .  S
Zn646       O657   2.000       .  S
Zn647       O649   1.976       .  S
Zn647       O652   2.041       .  S
Zn647       O655   2.052       .  S
Zn647       O658   2.045       .  S
Zn648       O649   1.967       .  S
Zn648       O656   2.009       .  S
Zn648       O659   2.048       .  S
Zn648       O660   2.043   1_545  S
O650        C662   1.274       .  A
O651        C663   1.272       .  A
O652        C664   1.276       .  A
O653        C662   1.273       .  A
O654        C664   1.273       .  A
O655        C663   1.279       .  A
O656        C665   1.274       .  A
O657        C666   1.272       .  A
O658        C665   1.277       .  A
O659        C666   1.277       .  A
O660        C667   1.277       .  A
O661        C667   1.272       .  A
C662       C1852   1.483       .  S
C663        C844   1.482       .  S
C664        C892   1.484       .  S
C665        C857   1.485       .  S
C666       C1636   1.487       .  S
C667        C820   1.482       .  S
Zn668       O672   1.951       .  S
Zn668       O673   1.998       .  S
Zn668       O677   1.998       .  S
Zn668       O684   2.038       .  S
Zn669       O672   1.977       .  S
Zn669       O674   2.039       .  S
Zn669       O676   2.044       .  S
Zn669       O680   2.059       .  S
Zn670       O672   1.974       .  S
Zn670       O675   2.057       .  S
Zn670       O678   2.014       .  S
Zn670       O681   2.054       .  S
Zn671       O672   1.930       .  S
Zn671       O679   1.979       .  S
Zn671       O682   1.986       .  S
Zn671       O683   1.982       .  S
O673        C685   1.273       .  A
O674        C686   1.277       .  A
O675        C687   1.278       .  A
O676        C685   1.278       .  A
O677        C687   1.272       .  A
O678        C686   1.275       .  A
O679        C688   1.270       .  A
O680        C689   1.278       .  A
O681        C688   1.277       .  A
O682        C689   1.270       .  A
O683        C690   1.269       .  A
O684        C690   1.274       .  A
C685        C809   1.484       .  S
C686       C1793   1.486       .  S
C687       C1516   1.486       .  S
C688        C833   1.476       .  S
C689        C964   1.484       .  S
C690        C796   1.480       .  S
Zn691       O695   1.978       .  S
Zn691       O696   2.055       .  S
Zn691       O700   2.023       .  S
Zn691       O707   2.057       .  S
Zn692       O695   1.948       .  S
Zn692       O697   1.989       .  S
Zn692       O699   1.995       .  S
Zn692       O703   2.026       .  S
Zn693       O695   1.984       .  S
Zn693       O698   2.035       .  S
Zn693       O701   2.050       .  S
Zn693       O704   2.069       .  S
Zn694       O695   1.929       .  S
Zn694       O702   1.975       .  S
Zn694       O705   1.992       .  S
Zn694       O706   1.970       .  S
O696        C708   1.278       .  A
O697        C709   1.272       .  A
O698        C710   1.277       .  A
O699        C708   1.272       .  A
O700        C710   1.276       .  A
O701        C709   1.279       .  A
O702        C711   1.269       .  A
O703        C712   1.272       .  A
O704        C711   1.278       .  A
O705        C712   1.269       .  A
O706        C713   1.269       .  A
O707        C713   1.278       .  A
C708       C1468   1.488       .  S
C709        C761   1.483       .  S
C710       C1732   1.487       .  S
C711        C988   1.487       .  S
C712        C785   1.477       .  S
C713        C748   1.482       .  S
Zn714       O718   1.941       .  S
Zn714       O719   1.980   1_565  S
Zn714       O723   2.017       .  S
Zn714       O730   1.999       .  S
Zn715       O718   1.977       .  S
Zn715       O720   2.060       .  S
Zn715       O722   2.054   1_565  S
Zn715       O726   2.029       .  S
Zn716       O718   1.937       .  S
Zn716       O721   2.016       .  S
Zn716       O724   1.990       .  S
Zn716       O727   1.988       .  S
Zn717       O718   1.969       .  S
Zn717       O725   2.043       .  S
Zn717       O728   2.031       .  S
Zn717       O729   2.038       .  S
O719        C731   1.271       .  A
O720        C732   1.279       .  A
O721        C733   1.273       .  A
O722        C731   1.279       .  A
O723        C733   1.272       .  A
O724        C732   1.272       .  A
O725        C734   1.277       .  A
O726        C735   1.276       .  A
O727        C734   1.271       .  A
O728        C735   1.277       .  A
O729        C736   1.276       .  A
O730        C736   1.272       .  A
C731        C772   1.478       .  S
C732       C1361   1.488       .  S
C733       C1697   1.484       .  S
C734        C737   1.480       .  S
C735        C868   1.488       .  S
C736       C1073   1.479       .  S
C737        C738   1.405       .  A
C737        C742   1.407       .  A
C738        C739   1.401       .  A
C738        H751   1.083       .  S
C739        C740   1.406       .  A
C739        H752   1.083       .  S
C740        C741   1.404       .  A
C740        C743   1.484       .  S
C741        C742   1.394       .  A
C741        H753   1.082       .  S
C742        H754   1.083       .  S
C743        C744   1.351       .  D
C743        H755   1.085       .  S
C744        C745   1.486       .  S
C744        H756   1.085       .  S
C745        C746   1.407       .  A
C745        C750   1.404       .  A
C746        C747   1.403       .  A
C746        H757   1.083       .  S
C747        C748   1.404       .  A
C747        H758   1.083       .  S
C748        C749   1.407       .  A
C749        C750   1.392       .  A
C749        H759   1.083       .  S
C750        H760   1.081       .  S
C761        C762   1.407       .  A
C761        C766   1.405       .  A
C762        C763   1.394       .  A
C762        H775   1.083       .  S
C763        C764   1.400       .  A
C763        H776   1.084       .  S
C764        C765   1.410       .  A
C764        C767   1.485       .  S
C765        C766   1.402       .  A
C765        H777   1.082       .  S
C766        H778   1.083       .  S
C767        C768   1.345       .  D
C767        H779   1.086       .  S
C768        C769   1.484       .  S
C768        H780   1.085       .  S
C769        C770   1.400       .  A
C769        C774   1.410       .  A
C770        C771   1.394       .  A
C770        H781   1.084       .  S
C771        C772   1.406       .  A
C771        H782   1.083       .  S
C772        C773   1.404       .  A
C773        C774   1.402       .  A
C773        H783   1.083       .  S
C774        H784   1.082       .  S
C785        C786   1.405       .  A
C785        C790   1.405       .  A
C786        C787   1.394       .  A
C786        H799   1.083       .  S
C787        C788   1.401       .  A
C787        H800   1.084       .  S
C788        C789   1.407       .  A
C788        C791   1.480       .  S
C789        C790   1.400       .  A
C789        H801   1.082       .  S
C790        H802   1.083       .  S
C791        C792   1.346       .  D
C791        H803   1.086       .  S
C792        C793   1.484       .  S
C792        H804   1.086       .  S
C793        C794   1.405       .  A
C793        C798   1.405       .  A
C794        C795   1.402       .  A
C794        H805   1.083       .  S
C795        C796   1.405       .  A
C795        H806   1.083       .  S
C796        C797   1.406       .  A
C797        C798   1.393       .  A
C797        H807   1.083       .  S
C798        H808   1.082       .  S
C809        C810   1.407       .  A
C809        C814   1.405       .  A
C810        C811   1.396       .  A
C810        H823   1.083       .  S
C811        C812   1.402       .  A
C811        H824   1.083       .  S
C812        C813   1.410       .  A
C812        C815   1.489       .  S
C813        C814   1.402       .  A
C813        H825   1.081       .  S
C814        H826   1.083       .  S
C815        C816   1.347       .  D
C815        H827   1.086       .  S
C816        C817   1.486       .  S
C816        H828   1.084       .  S
C817        C818   1.401       .  A
C817        C822   1.409       .  A
C818        C819   1.396       .  A
C818        H829   1.084       .  S
C819        C820   1.406       .  A
C819        H830   1.083       .  S
C820        C821   1.405       .  A
C821        C822   1.402       .  A
C821        H831   1.083       .  S
C822        H832   1.082       .  S
C833        C834   1.405       .  A
C833        C838   1.403       .  A
C834        C835   1.394       .  A
C834        H847   1.083       .  S
C835        C836   1.400       .  A
C835        H848   1.084       .  S
C836        C837   1.410       .  A
C836        C839   1.483       .  S
C837        C838   1.403       .  A
C837        H849   1.082       .  S
C838        H850   1.083       .  S
C839        C840   1.345       .  D
C839        H851   1.085       .  S
C840        C841   1.487       .  S
C840        H852   1.086       .  S
C841        C842   1.401       .  A
C841        C846   1.410       .  A
C842        C843   1.396       .  A
C842        H853   1.084       .  S
C843        C844   1.407       .  A
C843        H854   1.083       .  S
C844        C845   1.404       .  A
C845        C846   1.401       .  A
C845        H855   1.083       .  S
C846        H856   1.081       .  S
C857        C858   1.407       .  A
C857        C862   1.406       .  A
C858        C859   1.398       .  A
C858        H871   1.083       .  S
C859        C860   1.402       .  A
C859        H872   1.083   1_545  S
C860        C861   1.408       .  A
C860        C863   1.488       .  S
C861        C862   1.403       .  A
C861        H873   1.082       .  S
C862        H874   1.083       .  S
C863        C864   1.347       .  D
C863        H875   1.086       .  S
C864        C865   1.490   1_545  S
C864        H876   1.086       .  S
C865        C866   1.403       .  A
C865        C870   1.408   1_565  A
C866        C867   1.400       .  A
C866        H877   1.083       .  S
C867        C868   1.407       .  A
C867        H878   1.083       .  S
C868        C869   1.408       .  A
C869        C870   1.401   1_565  A
C869        H879   1.083   1_565  S
C870        H880   1.082       .  S
C881        C882   1.406       .  A
C881        C886   1.407   1_565  A
C882        C883   1.402       .  A
C882        H895   1.083       .  S
C883        C884   1.404       .  A
C883        H896   1.083       .  S
C884        C885   1.405   1_565  A
C884        C887   1.485       .  S
C885        C886   1.396       .  A
C885        H897   1.082       .  S
C886        H898   1.083       .  S
C887        C888   1.348   1_665  D
C887        H899   1.086   1_655  S
C888        C889   1.484       .  S
C888        H900   1.086   1_455  S
C889        C890   1.405       .  A
C889        C894   1.405       .  A
C890        C891   1.402       .  A
C890        H901   1.083       .  S
C891        C892   1.406       .  A
C891        H902   1.083       .  S
C892        C893   1.407       .  A
C893        C894   1.396       .  A
C893        H903   1.083   1_545  S
C894        H904   1.082   1_545  S
C905        C906   1.407       .  A
C905        C910   1.405       .  A
C906        C907   1.393       .  A
C906        H919   1.083       .  S
C907        C908   1.399       .  A
C907        H920   1.084       .  S
C908        C909   1.408       .  A
C908        C911   1.479       .  S
C909        C910   1.401       .  A
C909        H921   1.082       .  S
C910        H922   1.083       .  S
C911        C912   1.341       .  D
C911        H923   1.087       .  S
C912        C913   1.479       .  S
C912        H924   1.087       .  S
C913        C914   1.399       .  A
C913        C918   1.408       .  A
C914        C915   1.392       .  A
C914        H925   1.084       .  S
C915        C916   1.407       .  A
C915        H926   1.083       .  S
C916        C917   1.405       .  A
C917        C918   1.401       .  A
C917        H927   1.083       .  S
C918        H928   1.082       .  S
C929        C930   1.405       .  A
C929        C934   1.406       .  A
C930        C931   1.404       .  A
C930        H943   1.083       .  S
C931        C932   1.406       .  A
C931        H944   1.083       .  S
C932        C933   1.406       .  A
C932        C935   1.488       .  S
C933        C934   1.391       .  A
C933        H945   1.081       .  S
C934        H946   1.083       .  S
C935        C936   1.348       .  D
C935        H947   1.085       .  S
C936        C937   1.483       .  S
C936        H948   1.085       .  S
C937        C938   1.401       .  A
C937        C942   1.409       .  A
C938        C939   1.393       .  A
C938        H949   1.083       .  S
C939        C940   1.404       .  A
C939        H950   1.083       .  S
C940        C941   1.405       .  A
C941        C942   1.403       .  A
C941        H951   1.083       .  S
C942        H952   1.082       .  S
C953        C954   1.407       .  A
C953        C958   1.405       .  A
C954        C955   1.395       .  A
C954        H967   1.083       .  S
C955        C956   1.400       .  A
C955        H968   1.084       .  S
C956        C957   1.411       .  A
C956        C959   1.489       .  S
C957        C958   1.404       .  A
C957        H969   1.081       .  S
C958        H970   1.083       .  S
C959        C960   1.346   1_655  D
C959        H971   1.085   1_655  S
C960        C961   1.488       .  S
C960        H972   1.085       .  S
C961        C962   1.400       .  A
C961        C966   1.411       .  A
C962        C963   1.395       .  A
C962        H973   1.084       .  S
C963        C964   1.407       .  A
C963        H974   1.083       .  S
C964        C965   1.405       .  A
C965        C966   1.404       .  A
C965        H975   1.083       .  S
C966        H976   1.082       .  S
C977        C978   1.409       .  A
C977        C982   1.405       .  A
C978        C979   1.398       .  A
C978        H991   1.083       .  S
C979        C980   1.401       .  A
C979        H992   1.083       .  S
C980        C981   1.411       .  A
C980        C983   1.491       .  S
C981        C982   1.402       .  A
C981        H993   1.082       .  S
C982        H994   1.083       .  S
C983        C984   1.347   1_655  D
C983        H995   1.085       .  S
C984        C985   1.490       .  S
C984        H996   1.085   1_455  S
C985        C986   1.400       .  A
C985        C990   1.412       .  A
C986        C987   1.393       .  A
C986        H997   1.084       .  S
C987        C988   1.407       .  A
C987        H998   1.083       .  S
C988        C989   1.406       .  A
C989        C990   1.407       .  A
C989        H999   1.083       .  S
C990       H1000   1.081       .  S
C1001      C1002   1.408       .  A
C1001      C1006   1.407       .  A
C1002      C1003   1.404       .  A
C1002      H1015   1.083       .  S
C1003      C1004   1.406       .  A
C1003      H1016   1.083       .  S
C1004      C1005   1.408       .  A
C1004      C1007   1.497       .  S
C1005      C1006   1.400       .  A
C1005      H1017   1.081       .  S
C1006      H1018   1.083       .  S
C1007      C1008   1.351       .  D
C1007      H1019   1.085       .  S
C1008      C1009   1.494       .  S
C1008      H1020   1.085       .  S
C1009      C1010   1.404       .  A
C1009      C1014   1.410       .  A
C1010      C1011   1.398       .  A
C1010      H1021   1.083       .  S
C1011      C1012   1.406       .  A
C1011      H1022   1.083       .  S
C1012      C1013   1.408       .  A
C1013      C1014   1.407       .  A
C1013      H1023   1.083       .  S
C1014      H1024   1.082       .  S
C1025      C1026   1.405       .  A
C1025      C1030   1.407       .  A
C1026      C1027   1.394       .  A
C1026      H1039   1.083       .  S
C1027      C1028   1.401       .  A
C1027      H1040   1.084       .  S
C1028      C1029   1.408       .  A
C1028      C1031   1.483       .  S
C1029      C1030   1.404       .  A
C1029      H1041   1.082       .  S
C1030      H1042   1.083       .  S
C1031      C1032   1.347       .  D
C1031      H1043   1.086       .  S
C1032      C1033   1.488       .  S
C1032      H1044   1.086       .  S
C1033      C1034   1.406       .  A
C1033      C1038   1.405       .  A
C1034      C1035   1.404       .  A
C1034      H1045   1.083       .  S
C1035      C1036   1.407       .  A
C1035      H1046   1.083       .  S
C1036      C1037   1.407       .  A
C1037      C1038   1.394       .  A
C1037      H1047   1.083       .  S
C1038      H1048   1.082       .  S
C1049      C1050   1.405       .  A
C1049      C1054   1.406       .  A
C1050      C1051   1.401       .  A
C1050      H1063   1.083       .  S
C1051      C1052   1.404       .  A
C1051      H1064   1.083       .  S
C1052      C1053   1.403       .  A
C1052      C1055   1.479       .  S
C1053      C1054   1.392       .  A
C1053      H1065   1.082       .  S
C1054      H1066   1.083       .  S
C1055      C1056   1.346       .  D
C1055      H1067   1.086       .  S
C1056      C1057   1.479       .  S
C1056      H1068   1.086       .  S
C1057      C1058   1.403       .  A
C1057      C1062   1.404       .  A
C1058      C1059   1.399       .  A
C1058      H1069   1.083       .  S
C1059      C1060   1.405       .  A
C1059      H1070   1.083       .  S
C1060      C1061   1.406       .  A
C1061      C1062   1.393       .  A
C1061      H1071   1.083       .  S
C1062      H1072   1.082       .  S
C1073      C1074   1.404       .  A
C1073      C1078   1.406   1_565  A
C1074      C1075   1.401       .  A
C1074      H1087   1.083       .  S
C1075      C1076   1.405       .  A
C1075      H1088   1.083       .  S
C1076      C1077   1.406   1_565  A
C1076      C1079   1.485   1_455  S
C1077      C1078   1.396       .  A
C1077      H1089   1.082       .  S
C1078      H1090   1.083       .  S
C1079      C1080   1.348   1_565  D
C1079      H1091   1.086       .  S
C1080      C1081   1.485       .  S
C1080      H1092   1.086       .  S
C1081      C1082   1.403       .  A
C1081      C1086   1.406       .  A
C1082      C1083   1.400       .  A
C1082      H1093   1.083       .  S
C1083      C1084   1.406       .  A
C1083      H1094   1.083       .  S
C1084      C1085   1.406       .  A
C1085      C1086   1.397       .  A
C1085      H1095   1.083   1_545  S
C1086      H1096   1.082   1_545  S
C1097      C1098   1.405       .  A
C1097      C1102   1.406       .  A
C1098      C1099   1.396       .  A
C1098      H1111   1.083       .  S
C1099      C1100   1.402       .  A
C1099      H1112   1.083       .  S
C1100      C1101   1.408       .  A
C1100      C1103   1.484       .  S
C1101      C1102   1.400       .  A
C1101      H1113   1.082       .  S
C1102      H1114   1.083       .  S
C1103      C1104   1.346       .  D
C1103      H1115   1.086       .  S
C1104      C1105   1.486   1_545  S
C1104      H1116   1.087       .  S
C1105      C1106   1.403       .  A
C1105      C1110   1.407   1_565  A
C1106      C1107   1.399       .  A
C1106      H1117   1.084       .  S
C1107      C1108   1.407       .  A
C1107      H1118   1.082       .  S
C1108      C1109   1.406   1_565  A
C1109      C1110   1.397       .  A
C1109      H1119   1.084       .  S
C1110      H1120   1.081       .  S
C1121      C1122   1.405       .  A
C1121      C1126   1.409       .  A
C1122      C1123   1.402       .  A
C1122      H1135   1.083       .  S
C1123      C1124   1.406       .  A
C1123      H1136   1.083       .  S
C1124      C1125   1.406       .  A
C1124      C1127   1.491       .  S
C1125      C1126   1.399       .  A
C1125      H1137   1.081       .  S
C1126      H1138   1.083       .  S
C1127      C1128   1.353       .  D
C1127      H1139   1.084       .  S
C1128      C1129   1.494       .  S
C1128      H1140   1.085       .  S
C1129      C1130   1.407       .  A
C1129      C1134   1.407       .  A
C1130      C1131   1.403       .  A
C1130      H1141   1.083       .  S
C1131      C1132   1.405       .  A
C1131      H1142   1.083       .  S
C1132      C1133   1.407       .  A
C1133      C1134   1.397       .  A
C1133      H1143   1.083       .  S
C1134      H1144   1.080       .  S
C1145      C1146   1.406       .  A
C1145      C1150   1.407       .  A
C1146      C1147   1.405       .  A
C1146      H1159   1.083       .  S
C1147      C1148   1.406       .  A
C1147      H1160   1.083       .  S
C1148      C1149   1.404       .  A
C1148      C1151   1.487       .  S
C1149      C1150   1.391       .  A
C1149      H1161   1.082       .  S
C1150      H1162   1.083       .  S
C1151      C1152   1.348       .  D
C1151      H1163   1.086       .  S
C1152      C1153   1.483   1_565  S
C1152      H1164   1.086       .  S
C1153      C1154   1.403       .  A
C1153      C1158   1.406       .  A
C1154      C1155   1.396       .  A
C1154      H1165   1.083       .  S
C1155      C1156   1.405       .  A
C1155      H1166   1.083       .  S
C1156      C1157   1.407       .  A
C1157      C1158   1.400       .  A
C1157      H1167   1.083       .  S
C1158      H1168   1.082       .  S
C1169      C1170   1.406       .  A
C1169      C1174   1.406       .  A
C1170      C1171   1.401       .  A
C1170      H1183   1.083       .  S
C1171      C1172   1.405       .  A
C1171      H1184   1.083       .  S
C1172      C1173   1.406       .  A
C1172      C1175   1.488       .  S
C1173      C1174   1.395       .  A
C1173      H1185   1.081       .  S
C1174      H1186   1.083       .  S
C1175      C1176   1.347       .  D
C1175      H1187   1.086       .  S
C1176      C1177   1.481       .  S
C1176      H1188   1.085       .  S
C1177      C1178   1.400       .  A
C1177      C1182   1.409       .  A
C1178      C1179   1.393       .  A
C1178      H1189   1.084       .  S
C1179      C1180   1.403       .  A
C1179      H1190   1.084       .  S
C1180      C1181   1.403       .  A
C1181      C1182   1.403       .  A
C1181      H1191   1.083       .  S
C1182      H1192   1.082       .  S
C1193      C1194   1.406       .  A
C1193      C1198   1.405       .  A
C1194      C1195   1.395       .  A
C1194      H1207   1.083       .  S
C1195      C1196   1.401       .  A
C1195      H1208   1.084       .  S
C1196      C1197   1.410       .  A
C1196      C1199   1.487       .  S
C1197      C1198   1.403       .  A
C1197      H1209   1.081       .  S
C1198      H1210   1.083       .  S
C1199      C1200   1.347       .  D
C1199      H1211   1.085       .  S
C1200      C1201   1.487       .  S
C1200      H1212   1.085       .  S
C1201      C1202   1.401       .  A
C1201      C1206   1.409       .  A
C1202      C1203   1.397       .  A
C1202      H1213   1.083       .  S
C1203      C1204   1.408       .  A
C1203      H1214   1.083       .  S
C1204      C1205   1.406       .  A
C1205      C1206   1.401       .  A
C1205      H1215   1.083       .  S
C1206      H1216   1.082       .  S
C1217      C1218   1.407       .  A
C1217      C1222   1.406       .  A
C1218      C1219   1.396       .  A
C1218      H1231   1.083       .  S
C1219      C1220   1.401       .  A
C1219      H1232   1.083       .  S
C1220      C1221   1.410       .  A
C1220      C1223   1.489       .  S
C1221      C1222   1.405       .  A
C1221      H1233   1.082       .  S
C1222      H1234   1.083       .  S
C1223      C1224   1.348       .  D
C1223      H1235   1.085       .  S
C1224      C1225   1.491       .  S
C1224      H1236   1.085       .  S
C1225      C1226   1.402       .  A
C1225      C1230   1.411       .  A
C1226      C1227   1.397       .  A
C1226      H1237   1.083       .  S
C1227      C1228   1.407       .  A
C1227      H1238   1.083       .  S
C1228      C1229   1.405       .  A
C1229      C1230   1.404       .  A
C1229      H1239   1.083       .  S
C1230      H1240   1.082       .  S
C1241      C1242   1.405       .  A
C1241      C1246   1.405       .  A
C1242      C1243   1.398       .  A
C1242      H1255   1.083       .  S
C1243      C1244   1.403       .  A
C1243      H1256   1.083       .  S
C1244      C1245   1.406       .  A
C1244      C1247   1.482       .  S
C1245      C1246   1.394       .  A
C1245      H1257   1.082       .  S
C1246      H1258   1.083       .  S
C1247      C1248   1.344       .  D
C1247      H1259   1.086       .  S
C1248      C1249   1.478       .  S
C1248      H1260   1.086       .  S
C1249      C1250   1.400       .  A
C1249      C1254   1.407       .  A
C1250      C1251   1.393       .  A
C1250      H1261   1.084       .  S
C1251      C1252   1.406       .  A
C1251      H1262   1.083       .  S
C1252      C1253   1.404       .  A
C1253      C1254   1.399       .  A
C1253      H1263   1.083       .  S
C1254      H1264   1.082       .  S
C1265      C1266   1.406       .  A
C1265      C1270   1.403       .  A
C1266      C1267   1.395       .  A
C1266      H1279   1.083       .  S
C1267      C1268   1.400       .  A
C1267      H1280   1.083       .  S
C1268      C1269   1.411       .  A
C1268      C1271   1.485       .  S
C1269      C1270   1.403       .  A
C1269      H1281   1.082       .  S
C1270      H1282   1.083       .  S
C1271      C1272   1.346       .  D
C1271      H1283   1.084       .  S
C1272      C1273   1.489       .  S
C1272      H1284   1.086       .  S
C1273      C1274   1.401       .  A
C1273      C1278   1.412       .  A
C1274      C1275   1.394       .  A
C1274      H1285   1.084       .  S
C1275      C1276   1.406       .  A
C1275      H1286   1.083       .  S
C1276      C1277   1.405       .  A
C1277      C1278   1.404       .  A
C1277      H1287   1.083       .  S
C1278      H1288   1.081       .  S
C1289      C1290   1.406       .  A
C1289      C1294   1.405       .  A
C1290      C1291   1.396       .  A
C1290      H1303   1.083       .  S
C1291      C1292   1.402       .  A
C1291      H1304   1.084       .  S
C1292      C1293   1.409       .  A
C1292      C1295   1.487       .  S
C1293      C1294   1.402       .  A
C1293      H1305   1.081       .  S
C1294      H1306   1.083       .  S
C1295      C1296   1.347       .  D
C1295      H1307   1.085       .  S
C1296      C1297   1.488       .  S
C1296      H1308   1.085       .  S
C1297      C1298   1.402   1_545  A
C1297      C1302   1.409   1_545  A
C1298      C1299   1.397       .  A
C1298      H1309   1.084       .  S
C1299      C1300   1.407       .  A
C1299      H1310   1.083       .  S
C1300      C1301   1.406       .  A
C1301      C1302   1.400       .  A
C1301      H1311   1.083       .  S
C1302      H1312   1.081       .  S
C1313      C1314   1.405       .  A
C1313      C1318   1.408       .  A
C1314      C1315   1.403       .  A
C1314      H1327   1.083       .  S
C1315      C1316   1.407       .  A
C1315      H1328   1.083       .  S
C1316      C1317   1.406       .  A
C1316      C1319   1.491       .  S
C1317      C1318   1.399       .  A
C1317      H1329   1.082       .  S
C1318      H1330   1.083       .  S
C1319      C1320   1.351       .  D
C1319      H1331   1.086       .  S
C1320      C1321   1.491       .  S
C1320      H1332   1.085       .  S
C1321      C1322   1.407       .  A
C1321      C1326   1.405       .  A
C1322      C1323   1.404       .  A
C1322      H1333   1.083       .  S
C1323      C1324   1.406       .  A
C1323      H1334   1.083       .  S
C1324      C1325   1.409       .  A
C1325      C1326   1.398       .  A
C1325      H1335   1.083       .  S
C1326      H1336   1.082       .  S
C1337      C1338   1.408       .  A
C1337      C1342   1.406       .  A
C1338      C1339   1.397       .  A
C1338      H1351   1.083       .  S
C1339      C1340   1.402       .  A
C1339      H1352   1.083       .  S
C1340      C1341   1.410       .  A
C1340      C1343   1.490       .  S
C1341      C1342   1.402       .  A
C1341      H1353   1.082       .  S
C1342      H1354   1.083       .  S
C1343      C1344   1.348       .  D
C1343      H1355   1.083       .  S
C1344      C1345   1.494       .  S
C1344      H1356   1.085       .  S
C1345      C1346   1.403       .  A
C1345      C1350   1.411       .  A
C1346      C1347   1.397       .  A
C1346      H1357   1.083       .  S
C1347      C1348   1.406       .  A
C1347      H1358   1.083       .  S
C1348      C1349   1.406       .  A
C1349      C1350   1.403       .  A
C1349      H1359   1.083       .  S
C1350      H1360   1.080       .  S
C1361      C1362   1.408       .  A
C1361      C1366   1.407       .  A
C1362      C1363   1.395       .  A
C1362      H1375   1.083       .  S
C1363      C1364   1.400       .  A
C1363      H1376   1.083       .  S
C1364      C1365   1.410       .  A
C1364      C1367   1.488       .  S
C1365      C1366   1.406       .  A
C1365      H1377   1.082       .  S
C1366      H1378   1.083       .  S
C1367      C1368   1.344       .  D
C1367      H1379   1.086       .  S
C1368      C1369   1.487       .  S
C1368      H1380   1.086       .  S
C1369      C1370   1.399       .  A
C1369      C1374   1.410       .  A
C1370      C1371   1.394       .  A
C1370      H1381   1.083       .  S
C1371      C1372   1.408       .  A
C1371      H1382   1.083       .  S
C1372      C1373   1.406       .  A
C1373      C1374   1.407       .  A
C1373      H1383   1.083       .  S
C1374      H1384   1.083       .  S
C1385      C1386   1.408       .  A
C1385      C1390   1.405       .  A
C1386      C1387   1.398       .  A
C1386      H1399   1.083       .  S
C1387      C1388   1.402       .  A
C1387      H1400   1.083       .  S
C1388      C1389   1.411       .  A
C1388      C1391   1.493       .  S
C1389      C1390   1.401       .  A
C1389      H1401   1.081       .  S
C1390      H1402   1.083       .  S
C1391      C1392   1.347       .  D
C1391      H1403   1.085       .  S
C1392      C1393   1.490       .  S
C1392      H1404   1.084       .  S
C1393      C1394   1.400       .  A
C1393      C1398   1.412       .  A
C1394      C1395   1.393       .  A
C1394      H1405   1.084       .  S
C1395      C1396   1.407       .  A
C1395      H1406   1.083       .  S
C1396      C1397   1.407       .  A
C1397      C1398   1.407       .  A
C1397      H1407   1.083       .  S
C1398      H1408   1.081       .  S
C1409      C1410   1.407       .  A
C1409      C1414   1.405       .  A
C1410      C1411   1.397       .  A
C1410      H1423   1.083       .  S
C1411      C1412   1.402       .  A
C1411      H1424   1.084       .  S
C1412      C1413   1.409       .  A
C1412      C1415   1.488       .  S
C1413      C1414   1.401       .  A
C1413      H1425   1.081       .  S
C1414      H1426   1.083       .  S
C1415      C1416   1.347       .  D
C1415      H1427   1.086       .  S
C1416      C1417   1.486       .  S
C1416      H1428   1.085       .  S
C1417      C1418   1.401       .  A
C1417      C1422   1.409       .  A
C1418      C1419   1.395       .  A
C1418      H1429   1.084       .  S
C1419      C1420   1.406       .  A
C1419      H1430   1.083       .  S
C1420      C1421   1.405       .  A
C1421      C1422   1.403       .  A
C1421      H1431   1.083       .  S
C1422      H1432   1.082       .  S
C1433      C1434   1.404       .  A
C1433      C1438   1.406       .  A
C1434      C1435   1.401       .  A
C1434      H1447   1.083       .  S
C1435      C1436   1.407       .  A
C1435      H1448   1.083       .  S
C1436      C1437   1.407       .  A
C1436      C1439   1.491       .  S
C1437      C1438   1.397       .  A
C1437      H1449   1.080       .  S
C1438      H1450   1.083       .  S
C1439      C1440   1.352       .  D
C1439      H1451   1.084       .  S
C1440      C1441   1.490   1_545  S
C1440      H1452   1.084       .  S
C1441      C1442   1.406       .  A
C1441      C1446   1.406       .  A
C1442      C1443   1.402       .  A
C1442      H1453   1.083       .  S
C1443      C1444   1.405       .  A
C1443      H1454   1.083       .  S
C1444      C1445   1.407       .  A
C1445      C1446   1.396       .  A
C1445      H1455   1.083       .  S
C1446      H1456   1.081       .  S
C1457      C1458   1.403       .  A
C1457      C1462   1.408       .  A
C1458      C1459   1.402       .  A
C1458      H1471   1.083       .  S
C1459      C1460   1.406       .  A
C1459      H1472   1.083       .  S
C1460      C1461   1.405       .  A
C1460      C1463   1.487       .  S
C1461      C1462   1.399       .  A
C1461      H1473   1.082       .  S
C1462      H1474   1.083       .  S
C1463      C1464   1.350       .  D
C1463      H1475   1.086       .  S
C1464      C1465   1.488       .  S
C1464      H1476   1.086       .  S
C1465      C1466   1.406       .  A
C1465      C1470   1.404       .  A
C1466      C1467   1.404       .  A
C1466      H1477   1.083       .  S
C1467      C1468   1.407       .  A
C1467      H1478   1.083       .  S
C1468      C1469   1.408       .  A
C1469      C1470   1.396       .  A
C1469      H1479   1.083       .  S
C1470      H1480   1.083       .  S
C1481      C1482   1.405       .  A
C1481      C1486   1.407       .  A
C1482      C1483   1.400       .  A
C1482      H1495   1.083       .  S
C1483      C1484   1.405       .  A
C1483      H1496   1.083       .  S
C1484      C1485   1.407       .  A
C1484      C1487   1.488       .  S
C1485      C1486   1.398       .  A
C1485      H1497   1.082       .  S
C1486      H1498   1.083       .  S
C1487      C1488   1.349       .  D
C1487      H1499   1.086       .  S
C1488      C1489   1.487       .  S
C1488      H1500   1.085       .  S
C1489      C1490   1.405       .  A
C1489      C1494   1.406       .  A
C1490      C1491   1.401       .  A
C1490      H1501   1.083       .  S
C1491      C1492   1.405       .  A
C1491      H1502   1.083       .  S
C1492      C1493   1.406       .  A
C1493      C1494   1.397       .  A
C1493      H1503   1.083       .  S
C1494      H1504   1.082       .  S
C1505      C1506   1.408       .  A
C1505      C1510   1.407       .  A
C1506      C1507   1.395       .  A
C1506      H1519   1.083       .  S
C1507      C1508   1.401       .  A
C1507      H1520   1.083       .  S
C1508      C1509   1.411       .  A
C1508      C1511   1.491       .  S
C1509      C1510   1.407       .  A
C1509      H1521   1.082       .  S
C1510      H1522   1.083       .  S
C1511      C1512   1.345       .  D
C1511      H1523   1.086       .  S
C1512      C1513   1.490       .  S
C1512      H1524   1.086       .  S
C1513      C1514   1.400       .  A
C1513      C1518   1.411       .  A
C1514      C1515   1.395       .  A
C1514      H1525   1.083       .  S
C1515      C1516   1.407       .  A
C1515      H1526   1.083       .  S
C1516      C1517   1.406       .  A
C1517      C1518   1.406       .  A
C1517      H1527   1.083       .  S
C1518      H1528   1.082       .  S
C1529      C1530   1.405       .  A
C1529      C1534   1.407       .  A
C1530      C1531   1.400       .  A
C1530      H1543   1.083       .  S
C1531      C1532   1.404       .  A
C1531      H1544   1.083       .  S
C1532      C1533   1.406       .  A
C1532      C1535   1.487       .  S
C1533      C1534   1.400       .  A
C1533      H1545   1.082       .  S
C1534      H1546   1.083       .  S
C1535      C1536   1.349       .  D
C1535      H1547   1.086       .  S
C1536      C1537   1.488       .  S
C1536      H1548   1.086       .  S
C1537      C1538   1.406       .  A
C1537      C1542   1.405       .  A
C1538      C1539   1.403       .  A
C1538      H1549   1.083       .  S
C1539      C1540   1.406       .  A
C1539      H1550   1.083       .  S
C1540      C1541   1.407       .  A
C1541      C1542   1.396       .  A
C1541      H1551   1.083       .  S
C1542      H1552   1.082       .  S
C1553      C1554   1.405       .  A
C1553      C1558   1.407       .  A
C1554      C1555   1.400       .  A
C1554      H1567   1.083       .  S
C1555      C1556   1.405       .  A
C1555      H1568   1.083       .  S
C1556      C1557   1.408       .  A
C1556      C1559   1.491       .  S
C1557      C1558   1.400       .  A
C1557      H1569   1.081       .  S
C1558      H1570   1.083       .  S
C1559      C1560   1.351       .  D
C1559      H1571   1.083       .  S
C1560      C1561   1.493       .  S
C1560      H1572   1.084       .  S
C1561      C1562   1.406       .  A
C1561      C1566   1.408       .  A
C1562      C1563   1.401       .  A
C1562      H1573   1.083       .  S
C1563      C1564   1.405       .  A
C1563      H1574   1.083       .  S
C1564      C1565   1.407       .  A
C1565      C1566   1.398       .  A
C1565      H1575   1.083       .  S
C1566      H1576   1.080       .  S
C1577      C1578   1.406       .  A
C1577      C1582   1.403       .  A
C1578      C1579   1.395       .  A
C1578      H1591   1.083       .  S
C1579      C1580   1.400       .  A
C1579      H1592   1.083       .  S
C1580      C1581   1.410       .  A
C1580      C1583   1.486       .  S
C1581      C1582   1.403       .  A
C1581      H1593   1.082       .  S
C1582      H1594   1.083       .  S
C1583      C1584   1.346       .  D
C1583      H1595   1.085       .  S
C1584      C1585   1.488       .  S
C1584      H1596   1.086       .  S
C1585      C1586   1.401   1_565  A
C1585      C1590   1.411   1_565  A
C1586      C1587   1.395       .  A
C1586      H1597   1.083       .  S
C1587      C1588   1.406       .  A
C1587      H1598   1.083       .  S
C1588      C1589   1.405       .  A
C1589      C1590   1.404       .  A
C1589      H1599   1.083       .  S
C1590      H1600   1.081       .  S
C1601      C1602   1.406       .  A
C1601      C1606   1.406       .  A
C1602      C1603   1.401       .  A
C1602      H1615   1.083       .  S
C1603      C1604   1.405       .  A
C1603      H1616   1.083       .  S
C1604      C1605   1.407       .  A
C1604      C1607   1.490       .  S
C1605      C1606   1.397       .  A
C1605      H1617   1.081       .  S
C1606      H1618   1.083       .  S
C1607      C1608   1.350       .  D
C1607      H1619   1.085       .  S
C1608      C1609   1.488       .  S
C1608      H1620   1.084       .  S
C1609      C1610   1.404       .  A
C1609      C1614   1.407       .  A
C1610      C1611   1.399       .  A
C1610      H1621   1.083       .  S
C1611      C1612   1.406       .  A
C1611      H1622   1.083       .  S
C1612      C1613   1.408       .  A
C1613      C1614   1.400       .  A
C1613      H1623   1.083       .  S
C1614      H1624   1.082       .  S
C1625      C1626   1.405       .  A
C1625      C1630   1.407       .  A
C1626      C1627   1.403       .  A
C1626      H1639   1.083       .  S
C1627      C1628   1.406       .  A
C1627      H1640   1.083       .  S
C1628      C1629   1.405       .  A
C1628      C1631   1.488       .  S
C1629      C1630   1.397       .  A
C1629      H1641   1.082       .  S
C1630      H1642   1.083       .  S
C1631      C1632   1.350       .  D
C1631      H1643   1.086       .  S
C1632      C1633   1.488       .  S
C1632      H1644   1.086       .  S
C1633      C1634   1.405       .  A
C1633      C1638   1.405       .  A
C1634      C1635   1.403       .  A
C1634      H1645   1.083       .  S
C1635      C1636   1.406       .  A
C1635      H1646   1.083       .  S
C1636      C1637   1.408       .  A
C1637      C1638   1.397       .  A
C1637      H1647   1.083       .  S
C1638      H1648   1.082       .  S
C1649      C1650   1.407       .  A
C1649      C1654   1.405       .  A
C1650      C1651   1.395       .  A
C1650      H1663   1.083       .  S
C1651      C1652   1.400       .  A
C1651      H1664   1.083       .  S
C1652      C1653   1.409       .  A
C1652      C1655   1.485       .  S
C1653      C1654   1.404       .  A
C1653      H1665   1.083       .  S
C1654      H1666   1.083       .  S
C1655      C1656   1.344       .  D
C1655      H1667   1.086       .  S
C1656      C1657   1.486       .  S
C1656      H1668   1.087       .  S
C1657      C1658   1.400       .  A
C1657      C1662   1.409       .  A
C1658      C1659   1.395       .  A
C1658      H1669   1.083       .  S
C1659      C1660   1.408       .  A
C1659      H1670   1.083       .  S
C1660      C1661   1.406       .  A
C1661      C1662   1.403       .  A
C1661      H1671   1.083       .  S
C1662      H1672   1.082       .  S
C1673      C1674   1.406       .  A
C1673      C1678   1.407       .  A
C1674      C1675   1.400       .  A
C1674      H1687   1.083       .  S
C1675      C1676   1.405       .  A
C1675      H1688   1.083       .  S
C1676      C1677   1.406       .  A
C1676      C1679   1.488       .  S
C1677      C1678   1.397       .  A
C1677      H1689   1.081       .  S
C1678      H1690   1.083       .  S
C1679      C1680   1.350       .  D
C1679      H1691   1.083       .  S
C1680      C1681   1.490       .  S
C1680      H1692   1.085       .  S
C1681      C1682   1.405       .  A
C1681      C1686   1.408       .  A
C1682      C1683   1.399       .  A
C1682      H1693   1.083       .  S
C1683      C1684   1.405       .  A
C1683      H1694   1.083       .  S
C1684      C1685   1.407       .  A
C1685      C1686   1.398       .  A
C1685      H1695   1.083       .  S
C1686      H1696   1.080       .  S
C1697      C1698   1.406       .  A
C1697      C1702   1.406       .  A
C1698      C1699   1.399       .  A
C1698      H1711   1.083   1_565  S
C1699      C1700   1.403       .  A
C1699      H1712   1.083   1_565  S
C1700      C1701   1.408       .  A
C1700      C1703   1.488       .  S
C1701      C1702   1.398       .  A
C1701      H1713   1.081       .  S
C1702      H1714   1.083       .  S
C1703      C1704   1.349       .  D
C1703      H1715   1.083       .  S
C1704      C1705   1.491       .  S
C1704      H1716   1.085       .  S
C1705      C1706   1.404       .  A
C1705      C1710   1.410       .  A
C1706      C1707   1.397       .  A
C1706      H1717   1.083       .  S
C1707      C1708   1.405       .  A
C1707      H1718   1.083       .  S
C1708      C1709   1.405       .  A
C1709      C1710   1.400       .  A
C1709      H1719   1.083       .  S
C1710      H1720   1.079       .  S
C1721      C1722   1.406       .  A
C1721      C1726   1.405       .  A
C1722      C1723   1.398       .  A
C1722      H1735   1.083       .  S
C1723      C1724   1.405       .  A
C1723      H1736   1.083       .  S
C1724      C1725   1.411       .  A
C1724      C1727   1.494       .  S
C1725      C1726   1.400       .  A
C1725      H1737   1.079       .  S
C1726      H1738   1.083       .  S
C1727      C1728   1.349       .  D
C1727      H1739   1.084       .  S
C1728      C1729   1.491       .  S
C1728      H1740   1.083       .  S
C1729      C1730   1.403       .  A
C1729      C1734   1.409       .  A
C1730      C1731   1.397       .  A
C1730      H1741   1.083       .  S
C1731      C1732   1.406       .  A
C1731      H1742   1.083       .  S
C1732      C1733   1.407       .  A
C1733      C1734   1.402       .  A
C1733      H1743   1.083       .  S
C1734      H1744   1.081       .  S
C1745      C1746   1.404       .  A
C1745      C1750   1.409       .  A
C1746      C1747   1.401       .  A
C1746      H1759   1.083       .  S
C1747      C1748   1.406       .  A
C1747      H1760   1.083       .  S
C1748      C1749   1.405       .  A
C1748      C1751   1.488       .  S
C1749      C1750   1.396       .  A
C1749      H1761   1.081       .  S
C1750      H1762   1.083       .  S
C1751      C1752   1.352       .  D
C1751      H1763   1.084       .  S
C1752      C1753   1.490       .  S
C1752      H1764   1.084       .  S
C1753      C1754   1.407       .  A
C1753      C1758   1.406       .  A
C1754      C1755   1.403       .  A
C1754      H1765   1.083       .  S
C1755      C1756   1.405       .  A
C1755      H1766   1.083       .  S
C1756      C1757   1.406       .  A
C1757      C1758   1.394       .  A
C1757      H1767   1.083       .  S
C1758      H1768   1.081       .  S
C1769      C1770   1.406       .  A
C1769      C1774   1.405       .  A
C1770      C1771   1.396       .  A
C1770      H1783   1.083       .  S
C1771      C1772   1.402       .  A
C1771      H1784   1.084       .  S
C1772      C1773   1.409       .  A
C1772      C1775   1.487       .  S
C1773      C1774   1.401       .  A
C1773      H1785   1.081       .  S
C1774      H1786   1.083       .  S
C1775      C1776   1.347       .  D
C1775      H1787   1.085       .  S
C1776      C1777   1.487       .  S
C1776      H1788   1.085       .  S
C1777      C1778   1.402       .  A
C1777      C1782   1.408       .  A
C1778      C1779   1.398       .  A
C1778      H1789   1.084       .  S
C1779      C1780   1.407       .  A
C1779      H1790   1.083       .  S
C1780      C1781   1.406       .  A
C1781      C1782   1.400       .  A
C1781      H1791   1.083       .  S
C1782      H1792   1.081       .  S
C1793      C1794   1.406       .  A
C1793      C1798   1.406       .  A
C1794      C1795   1.396       .  A
C1794      H1807   1.083       .  S
C1795      C1796   1.403       .  A
C1795      H1808   1.083       .  S
C1796      C1797   1.411       .  A
C1796      C1799   1.492       .  S
C1797      C1798   1.402       .  A
C1797      H1809   1.080       .  S
C1798      H1810   1.083       .  S
C1799      C1800   1.348   1_554  D
C1799      H1811   1.083       .  S
C1800      C1801   1.493       .  S
C1800      H1812   1.084       .  S
C1801      C1802   1.403       .  A
C1801      C1806   1.411       .  A
C1802      C1803   1.397       .  A
C1802      H1813   1.083       .  S
C1803      C1804   1.406       .  A
C1803      H1814   1.083       .  S
C1804      C1805   1.405       .  A
C1805      C1806   1.401       .  A
C1805      H1815   1.083       .  S
C1806      H1816   1.080       .  S
C1817      C1818   1.407       .  A
C1817      C1822   1.407       .  A
C1818      C1819   1.403       .  A
C1818      H1831   1.083       .  S
C1819      C1820   1.405       .  A
C1819      H1832   1.083       .  S
C1820      C1821   1.406       .  A
C1820      C1823   1.489       .  S
C1821      C1822   1.397       .  A
C1821      H1833   1.082       .  S
C1822      H1834   1.083       .  S
C1823      C1824   1.348       .  D
C1823      H1835   1.086       .  S
C1824      C1825   1.486       .  S
C1824      H1836   1.086       .  S
C1825      C1826   1.402       .  A
C1825      C1830   1.408       .  A
C1826      C1827   1.397       .  A
C1826      H1837   1.083       .  S
C1827      C1828   1.406       .  A
C1827      H1838   1.083       .  S
C1828      C1829   1.405       .  A
C1829      C1830   1.402       .  A
C1829      H1839   1.083       .  S
C1830      H1840   1.082       .  S
C1841      C1842   1.406       .  A
C1841      C1846   1.407       .  A
C1842      C1843   1.397       .  A
C1842      H1855   1.083       .  S
C1843      C1844   1.403       .  A
C1843      H1856   1.084       .  S
C1844      C1845   1.408       .  A
C1844      C1847   1.487       .  S
C1845      C1846   1.401       .  A
C1845      H1857   1.082       .  S
C1846      H1858   1.083       .  S
C1847      C1848   1.348       .  D
C1847      H1859   1.085       .  S
C1848      C1849   1.488   1_556  S
C1848      H1860   1.085       .  S
C1849      C1850   1.404       .  A
C1849      C1854   1.408       .  A
C1850      C1851   1.400       .  A
C1850      H1861   1.083       .  S
C1851      C1852   1.406       .  A
C1851      H1862   1.083       .  S
C1852      C1853   1.405       .  A
C1853      C1854   1.398       .  A
C1853      H1863   1.083       .  S
C1854      H1864   1.081       .  S
C1865      C1866   1.404       .  A
C1865      C1870   1.404       .  A
C1866      C1867   1.393       .  A
C1866      H1879   1.084       .  S
C1867      C1868   1.401       .  A
C1867      H1880   1.084       .  S
C1868      C1869   1.411       .  A
C1868      C1871   1.485       .  S
C1869      C1870   1.405       .  A
C1869      H1881   1.082       .  S
C1870      H1882   1.083       .  S
C1871      C1872   1.347       .  D
C1871      H1883   1.084       .  S
C1872      C1873   1.491       .  S
C1872      H1884   1.086       .  S
C1873      C1874   1.404       .  A
C1873      C1878   1.409       .  A
C1874      C1875   1.399       .  A
C1874      H1885   1.083       .  S
C1875      C1876   1.406       .  A
C1875      H1886   1.083       .  S
C1876      C1877   1.406       .  A
C1877      C1878   1.398       .  A
C1877      H1887   1.083       .  S
C1878      H1888   1.081       .  S
C1889      C1890   1.403       .  A
C1889      C1894   1.404       .  A
C1890      C1891   1.393       .  A
C1890      H1903   1.084       .  S
C1891      C1892   1.401       .  A
C1891      H1904   1.084       .  S
C1892      C1893   1.410       .  A
C1892      C1895   1.483       .  S
C1893      C1894   1.404       .  A
C1893      H1905   1.082       .  S
C1894      H1906   1.083       .  S
C1895      C1896   1.347       .  D
C1895      H1907   1.084       .  S
C1896      C1897   1.490       .  S
C1896      H1908   1.086       .  S
C1897      C1898   1.406       .  A
C1897      C1902   1.407       .  A
C1898      C1899   1.403       .  A
C1898      H1909   1.083       .  S
C1899      C1900   1.406       .  A
C1899      H1910   1.083       .  S
C1900      C1901   1.406       .  A
C1901      C1902   1.394       .  A
C1901      H1911   1.083       .  S
C1902      H1912   1.081       .  S
C1913      C1914   1.405       .  A
C1913      C1918   1.407       .  A
C1914      C1915   1.400       .  A
C1914      H1927   1.083       .  S
C1915      C1916   1.406       .  A
C1915      H1928   1.084       .  S
C1916      C1917   1.408   1_565  A
C1916      C1919   1.491       .  S
C1917      C1918   1.399   1_545  A
C1917      H1929   1.081       .  S
C1918      H1930   1.083   1_565  S
C1919      C1920   1.352   1_565  D
C1919      H1931   1.083       .  S
C1920      C1921   1.494       .  S
C1920      H1932   1.084       .  S
C1921      C1922   1.407       .  A
C1921      C1926   1.408   1_545  A
C1922      C1923   1.402       .  A
C1922      H1933   1.083       .  S
C1923      C1924   1.405       .  A
C1923      H1934   1.083       .  S
C1924      C1925   1.407       .  A
C1925      C1926   1.397   1_545  A
C1925      H1935   1.083   1_545  S
C1926      H1936   1.080       .  S
C1937      C1938   1.405       .  A
C1937      C1942   1.407       .  A
C1938      C1939   1.397       .  A
C1938      H1951   1.083       .  S
C1939      C1940   1.403       .  A
C1939      H1952   1.083       .  S
C1940      C1941   1.409       .  A
C1940      C1943   1.489       .  S
C1941      C1942   1.401       .  A
C1941      H1953   1.081       .  S
C1942      H1954   1.083       .  S
C1943      C1944   1.349   1_556  D
C1943      H1955   1.084       .  S
C1944      C1945   1.491       .  S
C1944      H1956   1.084   1_554  S
C1945      C1946   1.404       .  A
C1945      C1950   1.409       .  A
C1946      C1947   1.400       .  A
C1946      H1957   1.083   1_565  S
C1947      C1948   1.406       .  A
C1947      H1958   1.083   1_565  S
C1948      C1949   1.406       .  A
C1949      C1950   1.399       .  A
C1949      H1959   1.083       .  S
C1950      H1960   1.081       .  S
C1961      C1962   1.407   1_545  A
C1961      C1966   1.405       .  A
C1962      C1963   1.395       .  A
C1962      H1975   1.083       .  S
C1963      C1964   1.400   1_565  A
C1963      H1976   1.084       .  S
C1964      C1965   1.409       .  A
C1964      C1967   1.484   1_545  S
C1965      C1966   1.401       .  A
C1965      H1977   1.082       .  S
C1966      H1978   1.083       .  S
C1967      C1968   1.345   1_455  D
C1967      H1979   1.084       .  S
C1968      C1969   1.488       .  S
C1968      H1980   1.086   1_665  S
C1969      C1970   1.401       .  A
C1969      C1974   1.411       .  A
C1970      C1971   1.394       .  A
C1970      H1981   1.084   1_565  S
C1971      C1972   1.407       .  A
C1971      H1982   1.083       .  S
C1972      C1973   1.405       .  A
C1973      C1974   1.402       .  A
C1973      H1983   1.083       .  S
C1974      H1984   1.080       .  S
C1985      C1986   1.406       .  A
C1985      C1990   1.407       .  A
C1986      C1987   1.400       .  A
C1986      H1999   1.083       .  S
C1987      C1988   1.404       .  A
C1987      H2000   1.083       .  S
C1988      C1989   1.407       .  A
C1988      C1991   1.488       .  S
C1989      C1990   1.400       .  A
C1989      H2001   1.082       .  S
C1990      H2002   1.083       .  S
C1991      C1992   1.347   1_556  D
C1991      H2003   1.086   1_556  S
C1992      C1993   1.487       .  S
C1992      H2004   1.086       .  S
C1993      C1994   1.402       .  A
C1993      C1998   1.408       .  A
C1994      C1995   1.398       .  A
C1994      H2005   1.083       .  S
C1995      C1996   1.406       .  A
C1995      H2006   1.083       .  S
C1996      C1997   1.406       .  A
C1997      C1998   1.402       .  A
C1997      H2007   1.083       .  S
C1998      H2008   1.082       .  S
C2009      C2010   1.407       .  A
C2009      C2014   1.403       .  A
C2010      C2011   1.394       .  A
C2010      H2023   1.083       .  S
C2011      C2012   1.399       .  A
C2011      H2024   1.084       .  S
C2012      C2013   1.411       .  A
C2012      C2015   1.485       .  S
C2013      C2014   1.404       .  A
C2013      H2025   1.082       .  S
C2014      H2026   1.083       .  S
C2015      C2016   1.345       .  D
C2015      H2027   1.085       .  S
C2016      C2017   1.488       .  S
C2016      H2028   1.086       .  S
C2017      C2018   1.400       .  A
C2017      C2022   1.412       .  A
C2018      C2019   1.393       .  A
C2018      H2029   1.084       .  S
C2019      C2020   1.406       .  A
C2019      H2030   1.083       .  S
C2020      C2021   1.405       .  A
C2021      C2022   1.406       .  A
C2021      H2031   1.083       .  S
C2022      H2032   1.081       .  S
C2033      C2034   1.405       .  A
C2033      C2038   1.405       .  A
C2034      C2035   1.401       .  A
C2034      H2047   1.083       .  S
C2035      C2036   1.406       .  A
C2035      H2048   1.083       .  S
C2036      C2037   1.407       .  A
C2036      C2039   1.490       .  S
C2037      C2038   1.395       .  A
C2037      H2049   1.080       .  S
C2038      H2050   1.083       .  S
C2039      C2040   1.351       .  D
C2039      H2051   1.085       .  S
C2040      C2041   1.486       .  S
C2040      H2052   1.083       .  S
C2041      C2042   1.405       .  A
C2041      C2046   1.405       .  A
C2042      C2043   1.400       .  A
C2042      H2053   1.083       .  S
C2043      C2044   1.405       .  A
C2043      H2054   1.083       .  S
C2044      C2045   1.408       .  A
C2045      C2046   1.397       .  A
C2045      H2055   1.083       .  S
C2046      H2056   1.082       .  S
C2057      C2058   1.405       .  A
C2057      C2062   1.408       .  A
C2058      C2059   1.401       .  A
C2058      H2071   1.083       .  S
C2059      C2060   1.405       .  A
C2059      H2072   1.083       .  S
C2060      C2061   1.407       .  A
C2060      C2063   1.490       .  S
C2061      C2062   1.399       .  A
C2061      H2073   1.082       .  S
C2062      H2074   1.083       .  S
C2063      C2064   1.349   1_655  D
C2063      H2075   1.086   1_655  S
C2064      C2065   1.489       .  S
C2064      H2076   1.086   1_455  S
C2065      C2066   1.404       .  A
C2065      C2070   1.407       .  A
C2066      C2067   1.401       .  A
C2066      H2077   1.083       .  S
C2067      C2068   1.406       .  A
C2067      H2078   1.083       .  S
C2068      C2069   1.407       .  A
C2069      C2070   1.399       .  A
C2069      H2079   1.083       .  S
C2070      H2080   1.082       .  S
C2081      C2082   1.407       .  A
C2081      C2086   1.407       .  A
C2082      C2083   1.400       .  A
C2082      H2095   1.083       .  S
C2083      C2084   1.403       .  A
C2083      H2096   1.083       .  S
C2084      C2085   1.407       .  A
C2084      C2087   1.489       .  S
C2085      C2086   1.401       .  A
C2085      H2097   1.083       .  S
C2086      H2098   1.083       .  S
C2087      C2088   1.347       .  D
C2087      H2099   1.086       .  S
C2088      C2089   1.488       .  S
C2088      H2100   1.086       .  S
C2089      C2090   1.402       .  A
C2089      C2094   1.408       .  A
C2090      C2091   1.398       .  A
C2090      H2101   1.083       .  S
C2091      C2092   1.406       .  A
C2091      H2102   1.083       .  S
C2092      C2093   1.408       .  A
C2093      C2094   1.404       .  A
C2093      H2103   1.083       .  S
C2094      H2104   1.082       .  S
C2105      C2106   1.405       .  A
C2105      C2110   1.407       .  A
C2106      C2107   1.403       .  A
C2106      H2119   1.083       .  S
C2107      C2108   1.406       .  A
C2107      H2120   1.083       .  S
C2108      C2109   1.406       .  A
C2108      C2111   1.490       .  S
C2109      C2110   1.396       .  A
C2109      H2121   1.082       .  S
C2110      H2122   1.083       .  S
C2111      C2112   1.351   1_655  D
C2111      H2123   1.085   1_655  S
C2112      C2113   1.490       .  S
C2112      H2124   1.085   1_455  S
C2113      C2114   1.405       .  A
C2113      C2118   1.406       .  A
C2114      C2115   1.401       .  A
C2114      H2125   1.083       .  S
C2115      C2116   1.406       .  A
C2115      H2126   1.083       .  S
C2116      C2117   1.408       .  A
C2117      C2118   1.399       .  A
C2117      H2127   1.083       .  S
C2118      H2128   1.082       .  S
C2129      C2130   1.405       .  A
C2129      C2134   1.405       .  A
C2130      C2131   1.398       .  A
C2130      H2143   1.083       .  S
C2131      C2132   1.403       .  A
C2131      H2144   1.083       .  S
C2132      C2133   1.407       .  A
C2132      C2135   1.483       .  S
C2133      C2134   1.395       .  A
C2133      H2145   1.082       .  S
C2134      H2146   1.083       .  S
C2135      C2136   1.344       .  D
C2135      H2147   1.086       .  S
C2136      C2137   1.479       .  S
C2136      H2148   1.086       .  S
C2137      C2138   1.399       .  A
C2137      C2142   1.408       .  A
C2138      C2139   1.393       .  A
C2138      H2149   1.084       .  S
C2139      C2140   1.406       .  A
C2139      H2150   1.083       .  S
C2140      C2141   1.405       .  A
C2141      C2142   1.400       .  A
C2141      H2151   1.083       .  S
C2142      H2152   1.082       .  S
C2153      C2154   1.405       .  A
C2153      C2158   1.405       .  A
C2154      C2155   1.397       .  A
C2154      H2167   1.083       .  S
C2155      C2156   1.404       .  A
C2155      H2168   1.083       .  S
C2156      C2157   1.410       .  A
C2156      C2159   1.489       .  S
C2157      C2158   1.398       .  A
C2157      H2169   1.080       .  S
C2158      H2170   1.083       .  S
C2159      C2160   1.347       .  D
C2159      H2171   1.085       .  S
C2160      C2161   1.485       .  S
C2160      H2172   1.083       .  S
C2161      C2162   1.402       .  A
C2161      C2166   1.409       .  A
C2162      C2163   1.396       .  A
C2162      H2173   1.083       .  S
C2163      C2164   1.407       .  A
C2163      H2174   1.083       .  S
C2164      C2165   1.405       .  A
C2165      C2166   1.399       .  A
C2165      H2175   1.083       .  S
C2166      H2176   1.081       .  S
C2177      C2178   1.407       .  A
C2177      C2182   1.405       .  A
C2178      C2179   1.398       .  A
C2178      H2191   1.083       .  S
C2179      C2180   1.402       .  A
C2179      H2192   1.083       .  S
C2180      C2181   1.408       .  A
C2180      C2183   1.486       .  S
C2181      C2182   1.397       .  A
C2181      H2193   1.081       .  S
C2182      H2194   1.083       .  S
C2183      C2184   1.346       .  D
C2183      H2195   1.086       .  S
C2184      C2185   1.482       .  S
C2184      H2196   1.085       .  S
C2185      C2186   1.401       .  A
C2185      C2190   1.408       .  A
C2186      C2187   1.394       .  A
C2186      H2197   1.084       .  S
C2187      C2188   1.405       .  A
C2187      H2198   1.083       .  S
C2188      C2189   1.405       .  A
C2189      C2190   1.401       .  A
C2189      H2199   1.083       .  S
C2190      H2200   1.082       .  S
C2201      C2202   1.404       .  A
C2201      C2206   1.407       .  A
C2202      C2203   1.403       .  A
C2202      H2215   1.083       .  S
C2203      C2204   1.408       .  A
C2203      H2216   1.083       .  S
C2204      C2205   1.406       .  A
C2204      C2207   1.493       .  S
C2205      C2206   1.395       .  A
C2205      H2217   1.080       .  S
C2206      H2218   1.083       .  S
C2207      C2208   1.353       .  D
C2207      H2219   1.085       .  S
C2208      C2209   1.488       .  S
C2208      H2220   1.083       .  S
C2209      C2210   1.407       .  A
C2209      C2214   1.405       .  A
C2210      C2211   1.402       .  A
C2210      H2221   1.083       .  S
C2211      C2212   1.404       .  A
C2211      H2222   1.083       .  S
C2212      C2213   1.409       .  A
C2213      C2214   1.396       .  A
C2213      H2223   1.083       .  S
C2214      H2224   1.081       .  S
C2225      C2226   1.407   1_545  A
C2225      C2230   1.406       .  A
C2226      C2227   1.395       .  A
C2226      H2239   1.083       .  S
C2227      C2228   1.401   1_565  A
C2227      H2240   1.083       .  S
C2228      C2229   1.409       .  A
C2228      C2231   1.487   1_545  S
C2229      C2230   1.405       .  A
C2229      H2241   1.082       .  S
C2230      H2242   1.083       .  S
C2231      C2232   1.345   1_665  D
C2231      H2243   1.086       .  S
C2232      C2233   1.488       .  S
C2232      H2244   1.086       .  S
C2233      C2234   1.401       .  A
C2233      C2238   1.409   1_545  A
C2234      C2235   1.396       .  A
C2234      H2245   1.083       .  S
C2235      C2236   1.408   1_545  A
C2235      H2246   1.083       .  S
C2236      C2237   1.406       .  A
C2237      C2238   1.404       .  A
C2237      H2247   1.083       .  S
C2238      H2248   1.082       .  S
C2249      C2250   1.407       .  A
C2249      C2254   1.408       .  A
C2250      C2251   1.398       .  A
C2250      H2263   1.083       .  S
C2251      C2252   1.402       .  A
C2251      H2264   1.083   1_545  S
C2252      C2253   1.408       .  A
C2252      C2255   1.489       .  S
C2253      C2254   1.404       .  A
C2253      H2265   1.082       .  S
C2254      H2266   1.083       .  S
C2255      C2256   1.349   1_545  D
C2255      H2267   1.086       .  S
C2256      C2257   1.492       .  S
C2256      H2268   1.086       .  S
C2257      C2258   1.406       .  A
C2257      C2262   1.407       .  A
C2258      C2259   1.404       .  A
C2258      H2269   1.083       .  S
C2259      C2260   1.407       .  A
C2259      H2270   1.083       .  S
C2260      C2261   1.408       .  A
C2261      C2262   1.399       .  A
C2261      H2271   1.083   1_565  S
C2262      H2272   1.082   1_565  S
C2273      C2274   1.406       .  A
C2273      C2278   1.406       .  A
C2274      C2275   1.399       .  A
C2274      H2287   1.083       .  S
C2275      C2276   1.404       .  A
C2275      H2288   1.083       .  S
C2276      C2277   1.406       .  A
C2276      C2279   1.485       .  S
C2277      C2278   1.398       .  A
C2277      H2289   1.082       .  S
C2278      H2290   1.083       .  S
C2279      C2280   1.348       .  D
C2279      H2291   1.086       .  S
C2280      C2281   1.486       .  S
C2280      H2292   1.086       .  S
C2281      C2282   1.404       .  A
C2281      C2286   1.406       .  A
C2282      C2283   1.400       .  A
C2282      H2293   1.083       .  S
C2283      C2284   1.405       .  A
C2283      H2294   1.083       .  S
C2284      C2285   1.406       .  A
C2285      C2286   1.398       .  A
C2285      H2295   1.083       .  S
C2286      H2296   1.082       .  S
C2297      C2298   1.405       .  A
C2297      C2302   1.408       .  A
C2298      C2299   1.401       .  A
C2298      H2311   1.083       .  S
C2299      C2300   1.406       .  A
C2299      H2312   1.083       .  S
C2300      C2301   1.407       .  A
C2300      C2303   1.491       .  S
C2301      C2302   1.399       .  A
C2301      H2313   1.081       .  S
C2302      H2314   1.083       .  S
C2303      C2304   1.352       .  D
C2303      H2315   1.085       .  S
C2304      C2305   1.490       .  S
C2304      H2316   1.084       .  S
C2305      C2306   1.406       .  A
C2305      C2310   1.406       .  A
C2306      C2307   1.403       .  A
C2306      H2317   1.083       .  S
C2307      C2308   1.406       .  A
C2307      H2318   1.083       .  S
C2308      C2309   1.407       .  A
C2309      C2310   1.397       .  A
C2309      H2319   1.083       .  S
C2310      H2320   1.081       .  S
C2321      C2322   1.406       .  A
C2321      C2326   1.407       .  A
C2322      C2323   1.397       .  A
C2322      H2335   1.083       .  S
C2323      C2324   1.403       .  A
C2323      H2336   1.083       .  S
C2324      C2325   1.409       .  A
C2324      C2327   1.489       .  S
C2325      C2326   1.401       .  A
C2325      H2337   1.081       .  S
C2326      H2338   1.083       .  S
C2327      C2328   1.349       .  D
C2327      H2339   1.083       .  S
C2328      C2329   1.492       .  S
C2328      H2340   1.085       .  S
C2329      C2330   1.404       .  A
C2329      C2334   1.410       .  A
C2330      C2331   1.399       .  A
C2330      H2341   1.083       .  S
C2331      C2332   1.406       .  A
C2331      H2342   1.083       .  S
C2332      C2333   1.405       .  A
C2333      C2334   1.400       .  A
C2333      H2343   1.083       .  S
C2334      H2344   1.080       .  S
C2345      C2346   1.405       .  A
C2345      C2350   1.406       .  A
C2346      C2347   1.395       .  A
C2346      H2359   1.083       .  S
C2347      C2348   1.402       .  A
C2347      H2360   1.083       .  S
C2348      C2349   1.407       .  A
C2348      C2351   1.482       .  S
C2349      C2350   1.401       .  A
C2349      H2361   1.082       .  S
C2350      H2362   1.083       .  S
C2351      C2352   1.348       .  D
C2351      H2363   1.085       .  S
C2352      C2353   1.487       .  S
C2352      H2364   1.086       .  S
C2353      C2354   1.406       .  A
C2353      C2358   1.405       .  A
C2354      C2355   1.403       .  A
C2354      H2365   1.083       .  S
C2355      C2356   1.406       .  A
C2355      H2366   1.083       .  S
C2356      C2357   1.407       .  A
C2357      C2358   1.393       .  A
C2357      H2367   1.083       .  S
C2358      H2368   1.082       .  S
C2369      C2370   1.405       .  A
C2369      C2374   1.407       .  A
C2370      C2371   1.395       .  A
C2370      H2383   1.083       .  S
C2371      C2372   1.403       .  A
C2371      H2384   1.083       .  S
C2372      C2373   1.408       .  A
C2372      C2375   1.487   1_565  S
C2373      C2374   1.403       .  A
C2373      H2385   1.081       .  S
C2374      H2386   1.083       .  S
C2375      C2376   1.349       .  D
C2375      H2387   1.085       .  S
C2376      C2377   1.491       .  S
C2376      H2388   1.085       .  S
C2377      C2378   1.407       .  A
C2377      C2382   1.406       .  A
C2378      C2379   1.405       .  A
C2378      H2389   1.083       .  S
C2379      C2380   1.405       .  A
C2379      H2390   1.083       .  S
C2380      C2381   1.404       .  A
C2381      C2382   1.393       .  A
C2381      H2391   1.083       .  S
C2382      H2392   1.081       .  S
C2393      C2394   1.408       .  A
C2393      C2398   1.408       .  A
C2394      C2395   1.396       .  A
C2394      H2407   1.083       .  S
C2395      C2396   1.401       .  A
C2395      H2408   1.083       .  S
C2396      C2397   1.410       .  A
C2396      C2399   1.490       .  S
C2397      C2398   1.406       .  A
C2397      H2409   1.082       .  S
C2398      H2410   1.083       .  S
C2399      C2400   1.345       .  D
C2399      H2411   1.086       .  S
C2400      C2401   1.489       .  S
C2400      H2412   1.086       .  S
C2401      C2402   1.400       .  A
C2401      C2406   1.410       .  A
C2402      C2403   1.396       .  A
C2402      H2413   1.083       .  S
C2403      C2404   1.407       .  A
C2403      H2414   1.083       .  S
C2404      C2405   1.406       .  A
C2405      C2406   1.407       .  A
C2405      H2415   1.083       .  S
C2406      H2416   1.083       .  S
C2417      C2418   1.406       .  A
C2417      C2422   1.406       .  A
C2418      C2419   1.399       .  A
C2418      H2431   1.083       .  S
C2419      C2420   1.404       .  A
C2419      H2432   1.083       .  S
C2420      C2421   1.409       .  A
C2420      C2423   1.492       .  S
C2421      C2422   1.399       .  A
C2421      H2433   1.080       .  S
C2422      H2434   1.083       .  S
C2423      C2424   1.350   1_556  D
C2423      H2435   1.084   1_556  S
C2424      C2425   1.492       .  S
C2424      H2436   1.084       .  S
C2425      C2426   1.404       .  A
C2425      C2430   1.410       .  A
C2426      C2427   1.398       .  A
C2426      H2437   1.084       .  S
C2427      C2428   1.406       .  A
C2427      H2438   1.083       .  S
C2428      C2429   1.406       .  A
C2429      C2430   1.401       .  A
C2429      H2439   1.083       .  S
C2430      H2440   1.080       .  S
C2441      C2442   1.404       .  A
C2441      C2446   1.407       .  A
C2442      C2443   1.404       .  A
C2442      H2455   1.083       .  S
C2443      C2444   1.407       .  A
C2443      H2456   1.083       .  S
C2444      C2445   1.404       .  A
C2444      C2447   1.487       .  S
C2445      C2446   1.395       .  A
C2445      H2457   1.082       .  S
C2446      H2458   1.083       .  S
C2447      C2448   1.351       .  D
C2447      H2459   1.086       .  S
C2448      C2449   1.487       .  S
C2448      H2460   1.086       .  S
C2449      C2450   1.407       .  A
C2449      C2454   1.403       .  A
C2450      C2451   1.405       .  A
C2450      H2461   1.083       .  S
C2451      C2452   1.406       .  A
C2451      H2462   1.083       .  S
C2452      C2453   1.408       .  A
C2453      C2454   1.394       .  A
C2453      H2463   1.083       .  S
C2454      H2464   1.082       .  S
C2465      C2466   1.406       .  A
C2465      C2470   1.406       .  A
C2466      C2467   1.401       .  A
C2466      H2479   1.083       .  S
C2467      C2468   1.404       .  A
C2467      H2480   1.083       .  S
C2468      C2469   1.405       .  A
C2468      C2471   1.483       .  S
C2469      C2470   1.394       .  A
C2469      H2481   1.082       .  S
C2470      H2482   1.083       .  S
C2471      C2472   1.346       .  D
C2471      H2483   1.086       .  S
C2472      C2473   1.480       .  S
C2472      H2484   1.086       .  S
C2473      C2474   1.401       .  A
C2473      C2478   1.407       .  A
C2474      C2475   1.395       .  A
C2474      H2485   1.084       .  S
C2475      C2476   1.404       .  A
C2475      H2486   1.083       .  S
C2476      C2477   1.404       .  A
C2477      C2478   1.400       .  A
C2477      H2487   1.083       .  S
C2478      H2488   1.082       .  S
C2489      C2490   1.408       .  A
C2489      C2494   1.405       .  A
C2490      C2491   1.396       .  A
C2490      H2503   1.083       .  S
C2491      C2492   1.400       .  A
C2491      H2504   1.084       .  S
C2492      C2493   1.408       .  A
C2492      C2495   1.483       .  S
C2493      C2494   1.400       .  A
C2493      H2505   1.082       .  S
C2494      H2506   1.083       .  S
C2495      C2496   1.344   1_556  D
C2495      H2507   1.086       .  S
C2496      C2497   1.482       .  S
C2496      H2508   1.086   1_554  S
C2497      C2498   1.401       .  A
C2497      C2502   1.408       .  A
C2498      C2499   1.395       .  A
C2498      H2509   1.084       .  S
C2499      C2500   1.405       .  A
C2499      H2510   1.083       .  S
C2500      C2501   1.406       .  A
C2501      C2502   1.400       .  A
C2501      H2511   1.083       .  S
C2502      H2512   1.082       .  S
C2513      C2514   1.405       .  A
C2513      C2518   1.404       .  A
C2514      C2515   1.391       .  A
C2514      H2527   1.083       .  S
C2515      C2516   1.399       .  A
C2515      H2528   1.084       .  S
C2516      C2517   1.409       .  A
C2516      C2519   1.478       .  S
C2517      C2518   1.403       .  A
C2517      H2529   1.082       .  S
C2518      H2530   1.083       .  S
C2519      C2520   1.344       .  D
C2519      H2531   1.086       .  S
C2520      C2521   1.484   1_565  S
C2520      H2532   1.087       .  S
C2521      C2522   1.403       .  A
C2521      C2526   1.407       .  A
C2522      C2523   1.399       .  A
C2522      H2533   1.083       .  S
C2523      C2524   1.407       .  A
C2523      H2534   1.083       .  S
C2524      C2525   1.404       .  A
C2525      C2526   1.394       .  A
C2525      H2535   1.083       .  S
C2526      H2536   1.082       .  S
C2537      C2538   1.406       .  A
C2537      C2542   1.406       .  A
C2538      C2539   1.404       .  A
C2538      H2551   1.083       .  S
C2539      C2540   1.406       .  A
C2539      H2552   1.083       .  S
C2540      C2541   1.406       .  A
C2540      C2543   1.489       .  S
C2541      C2542   1.392       .  A
C2541      H2553   1.081       .  S
C2542      H2554   1.083       .  S
C2543      C2544   1.348       .  D
C2543      H2555   1.085       .  S
C2544      C2545   1.484       .  S
C2544      H2556   1.085       .  S
C2545      C2546   1.401       .  A
C2545      C2550   1.409       .  A
C2546      C2547   1.392       .  A
C2546      H2557   1.084       .  S
C2547      C2548   1.404       .  A
C2547      H2558   1.083       .  S
C2548      C2549   1.406       .  A
C2549      C2550   1.403       .  A
C2549      H2559   1.083       .  S
C2550      H2560   1.082       .  S
C2561      C2562   1.408       .  A
C2561      C2566   1.406       .  A
C2562      C2563   1.392       .  A
C2562      H2575   1.083       .  S
C2563      C2564   1.398       .  A
C2563      H2576   1.084       .  S
C2564      C2565   1.410       .  A
C2564      C2567   1.484       .  S
C2565      C2566   1.407       .  A
C2565      H2577   1.083       .  S
C2566      H2578   1.083       .  S
C2567      C2568   1.343       .  D
C2567      H2579   1.086       .  S
C2568      C2569   1.486       .  S
C2568      H2580   1.086       .  S
C2569      C2570   1.400       .  A
C2569      C2574   1.409       .  A
C2570      C2571   1.396       .  A
C2570      H2581   1.083       .  S
C2571      C2572   1.409       .  A
C2571      H2582   1.083       .  S
C2572      C2573   1.406       .  A
C2573      C2574   1.403       .  A
C2573      H2583   1.083       .  S
C2574      H2584   1.082       .  S
C2585      C2586   1.406       .  A
C2585      C2590   1.407       .  A
C2586      C2587   1.400       .  A
C2586      H2599   1.083       .  S
C2587      C2588   1.404       .  A
C2587      H2600   1.083       .  S
C2588      C2589   1.407       .  A
C2588      C2591   1.488       .  S
C2589      C2590   1.400       .  A
C2589      H2601   1.082       .  S
C2590      H2602   1.083       .  S
C2591      C2592   1.347       .  D
C2591      H2603   1.086       .  S
C2592      C2593   1.486       .  S
C2592      H2604   1.086       .  S
C2593      C2594   1.402       .  A
C2593      C2598   1.408       .  A
C2594      C2595   1.398       .  A
C2594      H2605   1.083       .  S
C2595      C2596   1.406       .  A
C2595      H2606   1.083       .  S
C2596      C2597   1.406       .  A
C2597      C2598   1.403       .  A
C2597      H2607   1.083       .  S
C2598      H2608   1.082       .  S
C2609      C2610   1.406       .  A
C2609      C2614   1.406       .  A
C2610      C2611   1.397       .  A
C2610      H2623   1.083       .  S
C2611      C2612   1.402       .  A
C2611      H2624   1.083       .  S
C2612      C2613   1.407       .  A
C2612      C2615   1.484       .  S
C2613      C2614   1.399       .  A
C2613      H2625   1.082       .  S
C2614      H2626   1.083       .  S
C2615      C2616   1.345       .  D
C2615      H2627   1.086       .  S
C2616      C2617   1.484       .  S
C2616      H2628   1.086       .  S
C2617      C2618   1.401       .  A
C2617      C2622   1.407       .  A
C2618      C2619   1.397       .  A
C2618      H2629   1.083       .  S
C2619      C2620   1.406       .  A
C2619      H2630   1.083       .  S
C2620      C2621   1.407       .  A
C2621      C2622   1.400       .  A
C2621      H2631   1.083       .  S
C2622      H2632   1.082       .  S
C2633      C2634   1.405       .  A
C2633      C2638   1.408       .  A
C2634      C2635   1.404       .  A
C2634      H2647   1.083       .  S
C2635      C2636   1.407       .  A
C2635      H2648   1.083       .  S
C2636      C2637   1.406       .  A
C2636      C2639   1.493       .  S
C2637      C2638   1.396       .  A
C2637      H2649   1.081       .  S
C2638      H2650   1.083       .  S
C2639      C2640   1.353       .  D
C2639      H2651   1.084       .  S
C2640      C2641   1.493       .  S
C2640      H2652   1.085       .  S
C2641      C2642   1.407       .  A
C2641      C2646   1.407       .  A
C2642      C2643   1.401       .  A
C2642      H2653   1.084       .  S
C2643      C2644   1.405       .  A
C2643      H2654   1.083       .  S
C2644      C2645   1.408       .  A
C2645      C2646   1.399       .  A
C2645      H2655   1.083       .  S
C2646      H2656   1.080       .  S
C2657      C2658   1.407       .  A
C2657      C2662   1.405       .  A
C2658      C2659   1.397       .  A
C2658      H2671   1.083       .  S
C2659      C2660   1.403       .  A
C2659      H2672   1.083       .  S
C2660      C2661   1.411       .  A
C2660      C2663   1.494       .  S
C2661      C2662   1.403       .  A
C2661      H2673   1.080       .  S
C2662      H2674   1.083       .  S
C2663      C2664   1.348       .  D
C2663      H2675   1.085       .  S
C2664      C2665   1.490       .  S
C2664      H2676   1.084       .  S
C2665      C2666   1.401       .  A
C2665      C2670   1.410       .  A
C2666      C2667   1.396       .  A
C2666      H2677   1.084       .  S
C2667      C2668   1.408       .  A
C2667      H2678   1.083       .  S
C2668      C2669   1.406       .  A
C2669      C2670   1.404       .  A
C2669      H2679   1.083       .  S
C2670      H2680   1.081       .  S
C2681      C2682   1.407       .  A
C2681      C2686   1.405       .  A
C2682      C2683   1.400       .  A
C2682      H2695   1.083       .  S
C2683      C2684   1.405       .  A
C2683      H2696   1.083       .  S
C2684      C2685   1.409       .  A
C2684      C2687   1.491       .  S
C2685      C2686   1.398       .  A
C2685      H2697   1.081       .  S
C2686      H2698   1.083       .  S
C2687      C2688   1.350       .  D
C2687      H2699   1.084       .  S
C2688      C2689   1.490       .  S
C2688      H2700   1.084       .  S
C2689      C2690   1.404       .  A
C2689      C2694   1.408       .  A
C2690      C2691   1.398       .  A
C2690      H2701   1.083       .  S
C2691      C2692   1.405       .  A
C2691      H2702   1.083       .  S
C2692      C2693   1.407       .  A
C2693      C2694   1.400       .  A
C2693      H2703   1.083       .  S
C2694      H2704   1.081       .  S
C2705      C2706   1.406       .  A
C2705      C2710   1.405       .  A
C2706      C2707   1.393       .  A
C2706      H2719   1.083       .  S
C2707      C2708   1.400       .  A
C2707      H2720   1.084       .  S
C2708      C2709   1.410       .  A
C2708      C2711   1.484       .  S
C2709      C2710   1.403       .  A
C2709      H2721   1.082       .  S
C2710      H2722   1.083       .  S
C2711      C2712   1.345       .  D
C2711      H2723   1.086       .  S
C2712      C2713   1.486   1_565  S
C2712      H2724   1.086       .  S
C2713      C2714   1.401       .  A
C2713      C2718   1.410       .  A
C2714      C2715   1.396       .  A
C2714      H2725   1.084       .  S
C2715      C2716   1.407       .  A
C2715      H2726   1.083       .  S
C2716      C2717   1.404       .  A
C2717      C2718   1.400       .  A
C2717      H2727   1.083       .  S
C2718      H2728   1.082       .  S
C2729      C2730   1.404       .  A
C2729      C2734   1.407       .  A
C2730      C2731   1.403       .  A
C2730      H2743   1.083       .  S
C2731      C2732   1.407       .  A
C2731      H2744   1.084       .  S
C2732      C2733   1.405       .  A
C2732      C2735   1.488       .  S
C2733      C2734   1.393       .  A
C2733      H2745   1.081       .  S
C2734      H2746   1.084       .  S
C2735      C2736   1.352       .  D
C2735      H2747   1.085       .  S
C2736      C2737   1.487       .  S
C2736      H2748   1.085       .  S
C2737      C2738   1.407       .  A
C2737      C2742   1.404       .  A
C2738      C2739   1.402       .  A
C2738      H2749   1.084       .  S
C2739      C2740   1.404       .  A
C2739      H2750   1.082       .  S
C2740      C2741   1.408       .  A
C2741      C2742   1.394       .  A
C2741      H2751   1.084       .  S
C2742      H2752   1.081       .  S
C2753      C2754   1.406       .  A
C2753      C2758   1.407       .  A
C2754      C2755   1.403       .  A
C2754      H2767   1.083       .  S
C2755      C2756   1.406       .  A
C2755      H2768   1.083       .  S
C2756      C2757   1.405       .  A
C2756      C2759   1.489       .  S
C2757      C2758   1.395       .  A
C2757      H2769   1.081       .  S
C2758      H2770   1.083       .  S
C2759      C2760   1.353       .  D
C2759      H2771   1.083       .  S
C2760      C2761   1.492       .  S
C2760      H2772   1.085       .  S
C2761      C2762   1.408       .  A
C2761      C2766   1.407       .  A
C2762      C2763   1.401       .  A
C2762      H2773   1.083       .  S
C2763      C2764   1.404       .  A
C2763      H2774   1.083       .  S
C2764      C2765   1.408       .  A
C2765      C2766   1.397       .  A
C2765      H2775   1.083       .  S
C2766      H2776   1.079       .  S
C2777      C2778   1.407       .  A
C2777      C2782   1.405       .  A
C2778      C2779   1.397       .  A
C2778      H2791   1.083       .  S
C2779      C2780   1.401       .  A
C2779      H2792   1.083       .  S
C2780      C2781   1.409       .  A
C2780      C2783   1.487       .  S
C2781      C2782   1.401       .  A
C2781      H2793   1.082       .  S
C2782      H2794   1.083       .  S
C2783      C2784   1.346       .  D
C2783      H2795   1.086       .  S
C2784      C2785   1.487       .  S
C2784      H2796   1.086       .  S
C2785      C2786   1.401       .  A
C2785      C2790   1.409       .  A
C2786      C2787   1.395       .  A
C2786      H2797   1.084       .  S
C2787      C2788   1.407       .  A
C2787      H2798   1.083       .  S
C2788      C2789   1.406       .  A
C2789      C2790   1.403       .  A
C2789      H2799   1.083       .  S
C2790      H2800   1.082       .  S
C2801      C2802   1.406       .  A
C2801      C2806   1.406       .  A
C2802      C2803   1.399       .  A
C2802      H2815   1.083       .  S
C2803      C2804   1.403       .  A
C2803      H2816   1.083       .  S
C2804      C2805   1.407       .  A
C2804      C2807   1.485   1_556  S
C2805      C2806   1.398       .  A
C2805      H2817   1.082       .  S
C2806      H2818   1.083       .  S
C2807      C2808   1.346       .  D
C2807      H2819   1.086       .  S
C2808      C2809   1.484       .  S
C2808      H2820   1.086       .  S
C2809      C2810   1.402       .  A
C2809      C2814   1.407       .  A
C2810      C2811   1.398       .  A
C2810      H2821   1.083       .  S
C2811      C2812   1.406       .  A
C2811      H2822   1.083       .  S
C2812      C2813   1.407       .  A
C2813      C2814   1.400       .  A
C2813      H2823   1.083       .  S
C2814      H2824   1.082       .  S
C2825      C2826   1.405       .  A
C2825      C2830   1.407       .  A
C2826      C2827   1.401       .  A
C2826      H2839   1.083       .  S
C2827      C2828   1.404       .  A
C2827      H2840   1.083       .  S
C2828      C2829   1.404       .  A
C2828      C2831   1.483       .  S
C2829      C2830   1.395       .  A
C2829      H2841   1.082       .  S
C2830      H2842   1.083       .  S
C2831      C2832   1.348       .  D
C2831      H2843   1.086       .  S
C2832      C2833   1.484       .  S
C2832      H2844   1.086       .  S
C2833      C2834   1.405       .  A
C2833      C2838   1.404       .  A
C2834      C2835   1.403       .  A
C2834      H2845   1.083       .  S
C2835      C2836   1.405       .  A
C2835      H2846   1.083       .  S
C2836      C2837   1.407       .  A
C2837      C2838   1.393       .  A
C2837      H2847   1.083       .  S
C2838      H2848   1.082       .  S
C2849      C2850   1.408       .  A
C2849      C2854   1.404       .  A
C2850      C2851   1.397       .  A
C2850      H2863   1.083       .  S
C2851      C2852   1.401       .  A
C2851      H2864   1.083       .  S
C2852      C2853   1.410       .  A
C2852      C2855   1.489       .  S
C2853      C2854   1.400       .  A
C2853      H2865   1.081       .  S
C2854      H2866   1.083       .  S
C2855      C2856   1.346       .  D
C2855      H2867   1.085       .  S
C2856      C2857   1.486       .  S
C2856      H2868   1.085       .  S
C2857      C2858   1.400       .  A
C2857      C2862   1.410       .  A
C2858      C2859   1.393       .  A
C2858      H2869   1.084       .  S
C2859      C2860   1.407       .  A
C2859      H2870   1.083       .  S
C2860      C2861   1.406       .  A
C2861      C2862   1.404       .  A
C2861      H2871   1.083       .  S
C2862      H2872   1.081       .  S
C2873      C2874   1.407       .  A
C2873      C2878   1.408       .  A
C2874      C2875   1.396       .  A
C2874      H2887   1.083       .  S
C2875      C2876   1.402       .  A
C2875      H2888   1.083       .  S
C2876      C2877   1.410       .  A
C2876      C2879   1.492       .  S
C2877      C2878   1.408       .  A
C2877      H2889   1.082       .  S
C2878      H2890   1.083       .  S
C2879      C2880   1.349       .  D
C2879      H2891   1.085       .  S
C2880      C2881   1.496       .  S
C2880      H2892   1.085       .  S
C2881      C2882   1.406       .  A
C2881      C2886   1.409       .  A
C2882      C2883   1.404       .  A
C2882      H2893   1.083       .  S
C2883      C2884   1.407       .  A
C2883      H2894   1.083       .  S
C2884      C2885   1.407       .  A
C2885      C2886   1.400       .  A
C2885      H2895   1.083       .  S
C2886      H2896   1.081       .  S
C2897      C2898   1.407       .  A
C2897      C2902   1.406       .  A
C2898      C2899   1.399       .  A
C2898      H2911   1.083       .  S
C2899      C2900   1.402       .  A
C2899      H2912   1.083       .  S
C2900      C2901   1.407       .  A
C2900      C2903   1.484       .  S
C2901      C2902   1.398       .  A
C2901      H2913   1.082       .  S
C2902      H2914   1.083       .  S
C2903      C2904   1.346       .  D
C2903      H2915   1.086       .  S
C2904      C2905   1.483   1_556  S
C2904      H2916   1.086       .  S
C2905      C2906   1.402       .  A
C2905      C2910   1.407       .  A
C2906      C2907   1.396       .  A
C2906      H2917   1.083       .  S
C2907      C2908   1.405       .  A
C2907      H2918   1.083       .  S
C2908      C2909   1.406       .  A
C2909      C2910   1.401       .  A
C2909      H2919   1.083       .  S
C2910      H2920   1.082       .  S
C2921      C2922   1.405       .  A
C2921      C2926   1.405       .  A
C2922      C2923   1.396       .  A
C2922      H2935   1.083       .  S
C2923      C2924   1.401       .  A
C2923      H2936   1.084       .  S
C2924      C2925   1.408       .  A
C2924      C2927   1.483       .  S
C2925      C2926   1.399       .  A
C2925      H2937   1.082       .  S
C2926      H2938   1.083       .  S
C2927      C2928   1.346       .  D
C2927      H2939   1.085       .  S
C2928      C2929   1.485       .  S
C2928      H2940   1.086       .  S
C2929      C2930   1.402       .  A
C2929      C2934   1.408       .  A
C2930      C2931   1.396       .  A
C2930      H2941   1.084       .  S
C2931      C2932   1.406       .  A
C2931      H2942   1.083       .  S
C2932      C2933   1.405       .  A
C2933      C2934   1.398       .  A
C2933      H2943   1.083       .  S
C2934      H2944   1.081       .  S
C2945      C2946   1.405       .  A
C2945      C2950   1.408       .  A
C2946      C2947   1.404       .  A
C2946      H2959   1.083       .  S
C2947      C2948   1.407   1_565  A
C2947      H2960   1.083       .  S
C2948      C2949   1.405   1_545  A
C2948      C2951   1.490       .  S
C2949      C2950   1.394       .  A
C2949      H2961   1.081       .  S
C2950      H2962   1.083       .  S
C2951      C2952   1.353       .  D
C2951      H2963   1.084       .  S
C2952      C2953   1.491       .  S
C2952      H2964   1.084       .  S
C2953      C2954   1.407       .  A
C2953      C2958   1.406       .  A
C2954      C2955   1.402       .  A
C2954      H2965   1.083       .  S
C2955      C2956   1.404       .  A
C2955      H2966   1.083       .  S
C2956      C2957   1.408       .  A
C2957      C2958   1.396       .  A
C2957      H2967   1.083       .  S
C2958      H2968   1.080       .  S
C2969      C2970   1.408       .  A
C2969      C2974   1.406       .  A
C2970      C2971   1.396       .  A
C2970      H2983   1.083       .  S
C2971      C2972   1.401       .  A
C2971      H2984   1.083       .  S
C2972      C2973   1.411       .  A
C2972      C2975   1.491       .  S
C2973      C2974   1.405       .  A
C2973      H2985   1.082       .  S
C2974      H2986   1.083       .  S
C2975      C2976   1.345       .  D
C2975      H2987   1.086       .  S
C2976      C2977   1.489       .  S
C2976      H2988   1.085       .  S
C2977      C2978   1.400       .  A
C2977      C2982   1.411       .  A
C2978      C2979   1.394       .  A
C2978      H2989   1.083       .  S
C2979      C2980   1.407       .  A
C2979      H2990   1.083       .  S
C2980      C2981   1.406       .  A
C2981      C2982   1.407       .  A
C2981      H2991   1.083       .  S
C2982      H2992   1.082       .  S
C2993      C2994   1.405       .  A
C2993      C2998   1.407       .  A
C2994      C2995   1.401       .  A
C2994      H3007   1.083       .  S
C2995      C2996   1.405       .  A
C2995      H3008   1.083       .  S
C2996      C2997   1.405       .  A
C2996      C2999   1.485       .  S
C2997      C2998   1.395       .  A
C2997      H3009   1.082       .  S
C2998      H3010   1.083       .  S
C2999      C3000   1.348       .  D
C2999      H3011   1.086       .  S
C3000      C3001   1.483       .  S
C3000      H3012   1.086       .  S
C3001      C3002   1.403       .  A
C3001      C3006   1.406       .  A
C3002      C3003   1.397       .  A
C3002      H3013   1.083       .  S
C3003      C3004   1.405       .  A
C3003      H3014   1.083       .  S
C3004      C3005   1.406       .  A
C3005      C3006   1.398       .  A
C3005      H3015   1.083       .  S
C3006      H3016   1.082       .  S
C3017      C3018   1.406       .  A
C3017      C3022   1.405       .  A
C3018      C3019   1.399       .  A
C3018      H3031   1.083       .  S
C3019      C3020   1.403       .  A
C3019      H3032   1.083       .  S
C3020      C3021   1.407       .  A
C3020      C3023   1.485       .  S
C3021      C3022   1.396       .  A
C3021      H3033   1.082       .  S
C3022      H3034   1.083       .  S
C3023      C3024   1.346       .  D
C3023      H3035   1.086       .  S
C3024      C3025   1.483       .  S
C3024      H3036   1.086       .  S
C3025      C3026   1.401       .  A
C3025      C3030   1.408       .  A
C3026      C3027   1.395       .  A
C3026      H3037   1.084       .  S
C3027      C3028   1.405       .  A
C3027      H3038   1.083       .  S
C3028      C3029   1.405       .  A
C3029      C3030   1.400       .  A
C3029      H3039   1.083       .  S
C3030      H3040   1.082       .  S
